
     RDKit          3D

 22 24  0  0  0  0  0  0  0  0999 V2000
   -0.8859   -0.2676   -3.2152 O   0  0  0  0  0  0  0  0  0  0  0  0
   -0.5950   -0.2721   -2.0097 C   0  0  0  0  0  0  0  0  0  0  0  0
   -0.7966   -1.5364   -1.2129 C   0  0  0  0  0  0  0  0  0  0  0  0
   -1.2634   -2.5387   -1.7790 O   0  0  0  0  0  0  0  0  0  0  0  0
   -0.4197   -1.5414    0.2080 C   0  0  0  0  0  0  0  0  0  0  0  0
   -0.5737   -2.6922    0.9682 C   0  0  0  0  0  0  0  0  0  0  0  0
   -0.1790   -2.6739    2.2887 C   0  0  0  0  0  0  0  0  0  0  0  0
    0.3504   -1.4734    2.8072 C   0  0  0  0  0  0  0  0  0  0  0  0
    0.4746   -0.3507    2.0898 N   0  0  0  0  0  0  0  0  0  0  0  0
    0.1009   -0.3769    0.8238 C   0  0  0  0  0  0  0  0  0  0  0  0
    0.2540    0.8737    0.0564 C   0  0  0  0  0  0  0  0  0  0  0  0
    0.7003    1.9300    0.7138 N   0  0  0  0  0  0  0  0  0  0  0  0
    0.8747    3.0679    0.0305 C   0  0  0  0  0  0  0  0  0  0  0  0
    0.5998    3.2011   -1.3457 C   0  0  0  0  0  0  0  0  0  0  0  0
    0.1201    2.1001   -2.0199 C   0  0  0  0  0  0  0  0  0  0  0  0
   -0.0696    0.9157   -1.3214 C   0  0  0  0  0  0  0  0  0  0  0  0
   -0.9933   -3.5769    0.5069 H   0  0  0  0  0  0  0  0  0  0  0  0
   -0.2624   -3.5497    2.9100 H   0  0  0  0  0  0  0  0  0  0  0  0
    0.6726   -1.4195    3.8353 H   0  0  0  0  0  0  0  0  0  0  0  0
    1.2430    3.9114    0.5935 H   0  0  0  0  0  0  0  0  0  0  0  0
    0.7592    4.1389   -1.8517 H   0  0  0  0  0  0  0  0  0  0  0  0
   -0.1108    2.1305   -3.0764 H   0  0  0  0  0  0  0  0  0  0  0  0
  1  2  2  0
  2  3  1  0
  3  4  2  0
  3  5  1  0
  5  6  2  0
  6  7  1  0
  7  8  2  0
  8  9  1  0
  9 10  2  0
 10 11  1  0
 11 12  2  0
 12 13  1  0
 13 14  2  0
 14 15  1  0
 15 16  2  0
 16  2  1  0
 10  5  1  0
 16 11  1  0
  6 17  1  0
  7 18  1  0
  8 19  1  0
 13 20  1  0
 14 21  1  0
 15 22  1  0
M  END
$$$$

     RDKit          3D

 22 24  0  0  0  0  0  0  0  0999 V2000
    0.4651    3.1911   -0.8876 O   0  0  0  0  0  0  0  0  0  0  0  0
    0.3757    2.0217   -0.4834 C   0  0  0  0  0  0  0  0  0  0  0  0
    1.3753    1.5186    0.5240 C   0  0  0  0  0  0  0  0  0  0  0  0
    2.2385    2.2988    0.9605 O   0  0  0  0  0  0  0  0  0  0  0  0
    1.2859    0.1175    0.9587 C   0  0  0  0  0  0  0  0  0  0  0  0
    2.2114   -0.3934    1.8575 C   0  0  0  0  0  0  0  0  0  0  0  0
    2.1021   -1.7095    2.2472 C   0  0  0  0  0  0  0  0  0  0  0  0
    1.0472   -2.4778    1.7144 C   0  0  0  0  0  0  0  0  0  0  0  0
    0.1450   -1.9964    0.8490 N   0  0  0  0  0  0  0  0  0  0  0  0
    0.2622   -0.7353    0.4733 C   0  0  0  0  0  0  0  0  0  0  0  0
   -0.7394   -0.2330   -0.4846 C   0  0  0  0  0  0  0  0  0  0  0  0
   -1.6768   -1.0785   -0.8760 N   0  0  0  0  0  0  0  0  0  0  0  0
   -2.5961   -0.6389   -1.7439 C   0  0  0  0  0  0  0  0  0  0  0  0
   -2.6126    0.6719   -2.2626 C   0  0  0  0  0  0  0  0  0  0  0  0
   -1.6311    1.5470   -1.8519 C   0  0  0  0  0  0  0  0  0  0  0  0
   -0.6754    1.1049   -0.9490 C   0  0  0  0  0  0  0  0  0  0  0  0
    2.9950    0.2506    2.2335 H   0  0  0  0  0  0  0  0  0  0  0  0
    2.8039   -2.1444    2.9401 H   0  0  0  0  0  0  0  0  0  0  0  0
    0.9326   -3.5111    2.0012 H   0  0  0  0  0  0  0  0  0  0  0  0
   -3.3513   -1.3493   -2.0430 H   0  0  0  0  0  0  0  0  0  0  0  0
   -3.3720    0.9794   -2.9624 H   0  0  0  0  0  0  0  0  0  0  0  0
   -1.5852    2.5660   -2.2150 H   0  0  0  0  0  0  0  0  0  0  0  0
  1  2  2  0
  2  3  1  0
  3  4  2  0
  3  5  1  0
  5  6  2  0
  6  7  1  0
  7  8  2  0
  8  9  1  0
  9 10  2  0
 10 11  1  0
 11 12  2  0
 12 13  1  0
 13 14  2  0
 14 15  1  0
 15 16  2  0
 16  2  1  0
 10  5  1  0
 16 11  1  0
  6 17  1  0
  7 18  1  0
  8 19  1  0
 13 20  1  0
 14 21  1  0
 15 22  1  0
M  END
$$$$

     RDKit          3D

 22 24  0  0  0  0  0  0  0  0999 V2000
   -1.6242    2.9039   -0.3240 O   0  0  0  0  0  0  0  0  0  0  0  0
   -1.0864    1.7864   -0.2919 C   0  0  0  0  0  0  0  0  0  0  0  0
   -1.4505    0.7615   -1.3359 C   0  0  0  0  0  0  0  0  0  0  0  0
   -2.2931    1.0539   -2.1981 O   0  0  0  0  0  0  0  0  0  0  0  0
   -0.7847   -0.5489   -1.2934 C   0  0  0  0  0  0  0  0  0  0  0  0
   -1.0837   -1.5134   -2.2449 C   0  0  0  0  0  0  0  0  0  0  0  0
   -0.4313   -2.7249   -2.1918 C   0  0  0  0  0  0  0  0  0  0  0  0
    0.5109   -2.9286   -1.1641 C   0  0  0  0  0  0  0  0  0  0  0  0
    0.8045   -2.0110   -0.2353 N   0  0  0  0  0  0  0  0  0  0  0  0
    0.1739   -0.8500   -0.2923 C   0  0  0  0  0  0  0  0  0  0  0  0
    0.5163    0.1473    0.7409 C   0  0  0  0  0  0  0  0  0  0  0  0
    1.4014   -0.2061    1.6554 N   0  0  0  0  0  0  0  0  0  0  0  0
    1.7311    0.6894    2.5945 C   0  0  0  0  0  0  0  0  0  0  0  0
    1.1754    1.9828    2.6664 C   0  0  0  0  0  0  0  0  0  0  0  0
    0.2477    2.3419    1.7145 C   0  0  0  0  0  0  0  0  0  0  0  0
   -0.0967    1.4248    0.7327 C   0  0  0  0  0  0  0  0  0  0  0  0
   -1.8220   -1.2951   -3.0051 H   0  0  0  0  0  0  0  0  0  0  0  0
   -0.6287   -3.4977   -2.9155 H   0  0  0  0  0  0  0  0  0  0  0  0
    1.0367   -3.8696   -1.0969 H   0  0  0  0  0  0  0  0  0  0  0  0
    2.4594    0.3735    3.3256 H   0  0  0  0  0  0  0  0  0  0  0  0
    1.4658    2.6638    3.4480 H   0  0  0  0  0  0  0  0  0  0  0  0
   -0.2219    3.3161    1.7113 H   0  0  0  0  0  0  0  0  0  0  0  0
  1  2  2  0
  2  3  1  0
  3  4  2  0
  3  5  1  0
  5  6  2  0
  6  7  1  0
  7  8  2  0
  8  9  1  0
  9 10  2  0
 10 11  1  0
 11 12  2  0
 12 13  1  0
 13 14  2  0
 14 15  1  0
 15 16  2  0
 16  2  1  0
 10  5  1  0
 16 11  1  0
  6 17  1  0
  7 18  1  0
  8 19  1  0
 13 20  1  0
 14 21  1  0
 15 22  1  0
M  END
$$$$

     RDKit          3D

 22 24  0  0  0  0  0  0  0  0999 V2000
   -1.9483   -2.6391    0.6112 O   0  0  0  0  0  0  0  0  0  0  0  0
   -1.1508   -1.7354    0.3187 C   0  0  0  0  0  0  0  0  0  0  0  0
   -0.3417   -1.8552   -0.9466 C   0  0  0  0  0  0  0  0  0  0  0  0
   -0.3773   -2.9183   -1.5881 O   0  0  0  0  0  0  0  0  0  0  0  0
    0.4476   -0.6944   -1.3803 C   0  0  0  0  0  0  0  0  0  0  0  0
    1.1018   -0.7170   -2.6027 C   0  0  0  0  0  0  0  0  0  0  0  0
    1.8413    0.3828   -2.9806 C   0  0  0  0  0  0  0  0  0  0  0  0
    1.8954    1.4802   -2.0961 C   0  0  0  0  0  0  0  0  0  0  0  0
    1.2774    1.5090   -0.9088 N   0  0  0  0  0  0  0  0  0  0  0  0
    0.5650    0.4549   -0.5576 C   0  0  0  0  0  0  0  0  0  0  0  0
   -0.1273    0.5187    0.7439 C   0  0  0  0  0  0  0  0  0  0  0  0
    0.0632    1.6003    1.4777 N   0  0  0  0  0  0  0  0  0  0  0  0
   -0.5656    1.6804    2.6576 C   0  0  0  0  0  0  0  0  0  0  0  0
   -1.4146    0.6712    3.1559 C   0  0  0  0  0  0  0  0  0  0  0  0
   -1.6070   -0.4547    2.3861 C   0  0  0  0  0  0  0  0  0  0  0  0
   -0.9571   -0.5495    1.1647 C   0  0  0  0  0  0  0  0  0  0  0  0
    1.0200   -1.5988   -3.2263 H   0  0  0  0  0  0  0  0  0  0  0  0
    2.3575    0.4104   -3.9251 H   0  0  0  0  0  0  0  0  0  0  0  0
    2.4673    2.3583   -2.3555 H   0  0  0  0  0  0  0  0  0  0  0  0
   -0.3965    2.5769    3.2350 H   0  0  0  0  0  0  0  0  0  0  0  0
   -1.8962    0.7824    4.1127 H   0  0  0  0  0  0  0  0  0  0  0  0
   -2.2541   -1.2631    2.7040 H   0  0  0  0  0  0  0  0  0  0  0  0
  1  2  2  0
  2  3  1  0
  3  4  2  0
  3  5  1  0
  5  6  2  0
  6  7  1  0
  7  8  2  0
  8  9  1  0
  9 10  2  0
 10 11  1  0
 11 12  2  0
 12 13  1  0
 13 14  2  0
 14 15  1  0
 15 16  2  0
 16  2  1  0
 10  5  1  0
 16 11  1  0
  6 17  1  0
  7 18  1  0
  8 19  1  0
 13 20  1  0
 14 21  1  0
 15 22  1  0
M  END
$$$$

     RDKit          3D

 22 24  0  0  0  0  0  0  0  0999 V2000
    1.8295   -2.1261   -1.8299 O   0  0  0  0  0  0  0  0  0  0  0  0
    1.2438   -1.3201   -1.0896 C   0  0  0  0  0  0  0  0  0  0  0  0
    1.9590   -0.7873    0.1256 C   0  0  0  0  0  0  0  0  0  0  0  0
    3.1383   -1.1225    0.3266 O   0  0  0  0  0  0  0  0  0  0  0  0
    1.2343    0.1294    1.0196 C   0  0  0  0  0  0  0  0  0  0  0  0
    1.8511    0.6232    2.1599 C   0  0  0  0  0  0  0  0  0  0  0  0
    1.1486    1.4747    2.9851 C   0  0  0  0  0  0  0  0  0  0  0  0
   -0.1714    1.8120    2.6250 C   0  0  0  0  0  0  0  0  0  0  0  0
   -0.7764    1.3445    1.5254 N   0  0  0  0  0  0  0  0  0  0  0  0
   -0.0969    0.5260    0.7408 C   0  0  0  0  0  0  0  0  0  0  0  0
   -0.7829    0.0326   -0.4677 C   0  0  0  0  0  0  0  0  0  0  0  0
   -2.0185    0.4575   -0.6680 N   0  0  0  0  0  0  0  0  0  0  0  0
   -2.6539    0.0325   -1.7662 C   0  0  0  0  0  0  0  0  0  0  0  0
   -2.0836   -0.8526   -2.7048 C   0  0  0  0  0  0  0  0  0  0  0  0
   -0.8001   -1.2998   -2.4823 C   0  0  0  0  0  0  0  0  0  0  0  0
   -0.1268   -0.8594   -1.3530 C   0  0  0  0  0  0  0  0  0  0  0  0
    2.8669    0.3234    2.3774 H   0  0  0  0  0  0  0  0  0  0  0  0
    1.5949    1.8815    3.8773 H   0  0  0  0  0  0  0  0  0  0  0  0
   -0.7488    2.4816    3.2435 H   0  0  0  0  0  0  0  0  0  0  0  0
   -3.6587    0.3985   -1.9143 H   0  0  0  0  0  0  0  0  0  0  0  0
   -2.6431   -1.1686   -3.5688 H   0  0  0  0  0  0  0  0  0  0  0  0
   -0.3053   -1.9810   -3.1619 H   0  0  0  0  0  0  0  0  0  0  0  0
  1  2  2  0
  2  3  1  0
  3  4  2  0
  3  5  1  0
  5  6  2  0
  6  7  1  0
  7  8  2  0
  8  9  1  0
  9 10  2  0
 10 11  1  0
 11 12  2  0
 12 13  1  0
 13 14  2  0
 14 15  1  0
 15 16  2  0
 16  2  1  0
 10  5  1  0
 16 11  1  0
  6 17  1  0
  7 18  1  0
  8 19  1  0
 13 20  1  0
 14 21  1  0
 15 22  1  0
M  END
$$$$

     RDKit          3D

 22 24  0  0  0  0  0  0  0  0999 V2000
    2.2724   -2.3610    0.6477 O   0  0  0  0  0  0  0  0  0  0  0  0
    1.3884   -1.5507    0.3294 C   0  0  0  0  0  0  0  0  0  0  0  0
    0.4652   -1.8915   -0.8112 C   0  0  0  0  0  0  0  0  0  0  0  0
    0.6106   -2.9747   -1.4009 O   0  0  0  0  0  0  0  0  0  0  0  0
   -0.5744   -0.9242   -1.1864 C   0  0  0  0  0  0  0  0  0  0  0  0
   -1.4358   -1.2049   -2.2378 C   0  0  0  0  0  0  0  0  0  0  0  0
   -2.3829   -0.2677   -2.5847 C   0  0  0  0  0  0  0  0  0  0  0  0
   -2.4361    0.9299   -1.8418 C   0  0  0  0  0  0  0  0  0  0  0  0
   -1.6136    1.2086   -0.8217 N   0  0  0  0  0  0  0  0  0  0  0  0
   -0.7027    0.3090   -0.4979 C   0  0  0  0  0  0  0  0  0  0  0  0
    0.1944    0.6368    0.6292 C   0  0  0  0  0  0  0  0  0  0  0  0
    0.0066    1.7978    1.2320 N   0  0  0  0  0  0  0  0  0  0  0  0
    0.8100    2.1130    2.2562 C   0  0  0  0  0  0  0  0  0  0  0  0
    1.8426    1.2758    2.7234 C   0  0  0  0  0  0  0  0  0  0  0  0
    2.0324    0.0683    2.0912 C   0  0  0  0  0  0  0  0  0  0  0  0
    1.2087   -0.2699    1.0273 C   0  0  0  0  0  0  0  0  0  0  0  0
   -1.3442   -2.1497   -2.7587 H   0  0  0  0  0  0  0  0  0  0  0  0
   -3.0677   -0.4436   -3.3967 H   0  0  0  0  0  0  0  0  0  0  0  0
   -3.1658    1.6856   -2.0876 H   0  0  0  0  0  0  0  0  0  0  0  0
    0.6352    3.0667    2.7305 H   0  0  0  0  0  0  0  0  0  0  0  0
    2.4598    1.5760    3.5527 H   0  0  0  0  0  0  0  0  0  0  0  0
    2.7968   -0.6297    2.4061 H   0  0  0  0  0  0  0  0  0  0  0  0
  1  2  2  0
  2  3  1  0
  3  4  2  0
  3  5  1  0
  5  6  2  0
  6  7  1  0
  7  8  2  0
  8  9  1  0
  9 10  2  0
 10 11  1  0
 11 12  2  0
 12 13  1  0
 13 14  2  0
 14 15  1  0
 15 16  2  0
 16  2  1  0
 10  5  1  0
 16 11  1  0
  6 17  1  0
  7 18  1  0
  8 19  1  0
 13 20  1  0
 14 21  1  0
 15 22  1  0
M  END
$$$$

     RDKit          3D

 22 24  0  0  0  0  0  0  0  0999 V2000
   -1.1423    2.8621    1.3061 O   0  0  0  0  0  0  0  0  0  0  0  0
   -0.6891    1.8622    0.7268 C   0  0  0  0  0  0  0  0  0  0  0  0
   -0.4358    1.9194   -0.7582 C   0  0  0  0  0  0  0  0  0  0  0  0
   -0.5727    2.9964   -1.3546 O   0  0  0  0  0  0  0  0  0  0  0  0
   -0.0169    0.6923   -1.4495 C   0  0  0  0  0  0  0  0  0  0  0  0
    0.1381    0.6887   -2.8280 C   0  0  0  0  0  0  0  0  0  0  0  0
    0.5259   -0.4759   -3.4525 C   0  0  0  0  0  0  0  0  0  0  0  0
    0.7603   -1.6117   -2.6499 C   0  0  0  0  0  0  0  0  0  0  0  0
    0.6232   -1.6176   -1.3172 N   0  0  0  0  0  0  0  0  0  0  0  0
    0.2395   -0.4990   -0.7279 C   0  0  0  0  0  0  0  0  0  0  0  0
    0.0855   -0.5297    0.7398 C   0  0  0  0  0  0  0  0  0  0  0  0
    0.3870   -1.6626    1.3497 N   0  0  0  0  0  0  0  0  0  0  0  0
    0.2473   -1.7156    2.6794 C   0  0  0  0  0  0  0  0  0  0  0  0
   -0.2083   -0.6321    3.4592 C   0  0  0  0  0  0  0  0  0  0  0  0
   -0.5297    0.5425    2.8154 C   0  0  0  0  0  0  0  0  0  0  0  0
   -0.3769    0.6139    1.4382 C   0  0  0  0  0  0  0  0  0  0  0  0
   -0.0491    1.6007   -3.3805 H   0  0  0  0  0  0  0  0  0  0  0  0
    0.6491   -0.5222   -4.5210 H   0  0  0  0  0  0  0  0  0  0  0  0
    1.0579   -2.5436   -3.1055 H   0  0  0  0  0  0  0  0  0  0  0  0
    0.5072   -2.6498    3.1534 H   0  0  0  0  0  0  0  0  0  0  0  0
   -0.3039   -0.7276    4.5275 H   0  0  0  0  0  0  0  0  0  0  0  0
   -0.8964    1.4094    3.3494 H   0  0  0  0  0  0  0  0  0  0  0  0
  1  2  2  0
  2  3  1  0
  3  4  2  0
  3  5  1  0
  5  6  2  0
  6  7  1  0
  7  8  2  0
  8  9  1  0
  9 10  2  0
 10 11  1  0
 11 12  2  0
 12 13  1  0
 13 14  2  0
 14 15  1  0
 15 16  2  0
 16  2  1  0
 10  5  1  0
 16 11  1  0
  6 17  1  0
  7 18  1  0
  8 19  1  0
 13 20  1  0
 14 21  1  0
 15 22  1  0
M  END
$$$$

     RDKit          3D

 22 24  0  0  0  0  0  0  0  0999 V2000
    3.0327    0.6866   -1.2426 O   0  0  0  0  0  0  0  0  0  0  0  0
    1.9310    0.4981   -0.6983 C   0  0  0  0  0  0  0  0  0  0  0  0
    1.5809    1.3004    0.5286 C   0  0  0  0  0  0  0  0  0  0  0  0
    2.4122    2.1043    0.9767 O   0  0  0  0  0  0  0  0  0  0  0  0
    0.2628    1.1005    1.1464 C   0  0  0  0  0  0  0  0  0  0  0  0
   -0.1040    1.8366    2.2637 C   0  0  0  0  0  0  0  0  0  0  0  0
   -1.3436    1.6214    2.8242 C   0  0  0  0  0  0  0  0  0  0  0  0
   -2.1819    0.6547    2.2321 C   0  0  0  0  0  0  0  0  0  0  0  0
   -1.8367   -0.0674    1.1583 N   0  0  0  0  0  0  0  0  0  0  0  0
   -0.6475    0.1481    0.6239 C   0  0  0  0  0  0  0  0  0  0  0  0
   -0.2967   -0.6528   -0.5637 C   0  0  0  0  0  0  0  0  0  0  0  0
   -1.1963   -1.5225   -0.9890 N   0  0  0  0  0  0  0  0  0  0  0  0
   -0.9078   -2.2482   -2.0752 C   0  0  0  0  0  0  0  0  0  0  0  0
    0.3086   -2.1438   -2.7799 C   0  0  0  0  0  0  0  0  0  0  0  0
    1.2442   -1.2393   -2.3263 C   0  0  0  0  0  0  0  0  0  0  0  0
    0.9553   -0.4778   -1.2028 C   0  0  0  0  0  0  0  0  0  0  0  0
    0.5909    2.5597    2.6711 H   0  0  0  0  0  0  0  0  0  0  0  0
   -1.6679    2.1766    3.6885 H   0  0  0  0  0  0  0  0  0  0  0  0
   -3.1606    0.4603    2.6450 H   0  0  0  0  0  0  0  0  0  0  0  0
   -1.6673   -2.9389   -2.4075 H   0  0  0  0  0  0  0  0  0  0  0  0
    0.4952   -2.7515   -3.6505 H   0  0  0  0  0  0  0  0  0  0  0  0
    2.1965   -1.1052   -2.8227 H   0  0  0  0  0  0  0  0  0  0  0  0
  1  2  2  0
  2  3  1  0
  3  4  2  0
  3  5  1  0
  5  6  2  0
  6  7  1  0
  7  8  2  0
  8  9  1  0
  9 10  2  0
 10 11  1  0
 11 12  2  0
 12 13  1  0
 13 14  2  0
 14 15  1  0
 15 16  2  0
 16  2  1  0
 10  5  1  0
 16 11  1  0
  6 17  1  0
  7 18  1  0
  8 19  1  0
 13 20  1  0
 14 21  1  0
 15 22  1  0
M  END
$$$$

     RDKit          3D

 22 24  0  0  0  0  0  0  0  0999 V2000
    2.7368    1.6393   -0.9927 O   0  0  0  0  0  0  0  0  0  0  0  0
    1.7480    1.0617   -0.5188 C   0  0  0  0  0  0  0  0  0  0  0  0
    1.4221    1.2446    0.9400 C   0  0  0  0  0  0  0  0  0  0  0  0
    2.1674    1.9461    1.6429 O   0  0  0  0  0  0  0  0  0  0  0  0
    0.2197    0.5923    1.4756 C   0  0  0  0  0  0  0  0  0  0  0  0
   -0.1256    0.7681    2.8079 C   0  0  0  0  0  0  0  0  0  0  0  0
   -1.2482    0.1352    3.2917 C   0  0  0  0  0  0  0  0  0  0  0  0
   -1.9981   -0.6624    2.4016 C   0  0  0  0  0  0  0  0  0  0  0  0
   -1.6774   -0.8368    1.1112 N   0  0  0  0  0  0  0  0  0  0  0  0
   -0.5991   -0.2246    0.6556 C   0  0  0  0  0  0  0  0  0  0  0  0
   -0.2672   -0.4186   -0.7695 C   0  0  0  0  0  0  0  0  0  0  0  0
   -1.0764   -1.1896   -1.4750 N   0  0  0  0  0  0  0  0  0  0  0  0
   -0.7886   -1.3862   -2.7666 C   0  0  0  0  0  0  0  0  0  0  0  0
    0.3206   -0.8044   -3.4156 C   0  0  0  0  0  0  0  0  0  0  0  0
    1.1581   -0.0003   -2.6747 C   0  0  0  0  0  0  0  0  0  0  0  0
    0.8750    0.2039   -1.3328 C   0  0  0  0  0  0  0  0  0  0  0  0
    0.4977    1.3949    3.4342 H   0  0  0  0  0  0  0  0  0  0  0  0
   -1.5535    0.2467    4.3196 H   0  0  0  0  0  0  0  0  0  0  0  0
   -2.8806   -1.1746    2.7517 H   0  0  0  0  0  0  0  0  0  0  0  0
   -1.4643   -2.0219   -3.3196 H   0  0  0  0  0  0  0  0  0  0  0  0
    0.5087   -0.9962   -4.4578 H   0  0  0  0  0  0  0  0  0  0  0  0
    2.0249    0.4827   -3.1088 H   0  0  0  0  0  0  0  0  0  0  0  0
  1  2  2  0
  2  3  1  0
  3  4  2  0
  3  5  1  0
  5  6  2  0
  6  7  1  0
  7  8  2  0
  8  9  1  0
  9 10  2  0
 10 11  1  0
 11 12  2  0
 12 13  1  0
 13 14  2  0
 14 15  1  0
 15 16  2  0
 16  2  1  0
 10  5  1  0
 16 11  1  0
  6 17  1  0
  7 18  1  0
  8 19  1  0
 13 20  1  0
 14 21  1  0
 15 22  1  0
M  END
$$$$

     RDKit          3D

 22 24  0  0  0  0  0  0  0  0999 V2000
   -3.1403    1.1243   -0.2489 O   0  0  0  0  0  0  0  0  0  0  0  0
   -2.0054    0.6641   -0.0596 C   0  0  0  0  0  0  0  0  0  0  0  0
   -1.7175   -0.0594    1.2323 C   0  0  0  0  0  0  0  0  0  0  0  0
   -2.6275   -0.1972    2.0652 O   0  0  0  0  0  0  0  0  0  0  0  0
   -0.3629   -0.5811    1.4553 C   0  0  0  0  0  0  0  0  0  0  0  0
   -0.0606   -1.2507    2.6323 C   0  0  0  0  0  0  0  0  0  0  0  0
    1.2271   -1.6962    2.8310 C   0  0  0  0  0  0  0  0  0  0  0  0
    2.1759   -1.4615    1.8145 C   0  0  0  0  0  0  0  0  0  0  0  0
    1.8935   -0.8296    0.6698 N   0  0  0  0  0  0  0  0  0  0  0  0
    0.6561   -0.4028    0.4875 C   0  0  0  0  0  0  0  0  0  0  0  0
    0.3673    0.2755   -0.7896 C   0  0  0  0  0  0  0  0  0  0  0  0
    1.3639    0.3728   -1.6543 N   0  0  0  0  0  0  0  0  0  0  0  0
    1.1142    0.9649   -2.8297 C   0  0  0  0  0  0  0  0  0  0  0  0
   -0.1412    1.5008   -3.1828 C   0  0  0  0  0  0  0  0  0  0  0  0
   -1.1686    1.4106   -2.2681 C   0  0  0  0  0  0  0  0  0  0  0  0
   -0.9269    0.7898   -1.0511 C   0  0  0  0  0  0  0  0  0  0  0  0
   -0.8403   -1.4080    3.3653 H   0  0  0  0  0  0  0  0  0  0  0  0
    1.5055   -2.2121    3.7350 H   0  0  0  0  0  0  0  0  0  0  0  0
    3.1945   -1.7953    1.9388 H   0  0  0  0  0  0  0  0  0  0  0  0
    1.9381    1.0179   -3.5269 H   0  0  0  0  0  0  0  0  0  0  0  0
   -0.2898    1.9674   -4.1423 H   0  0  0  0  0  0  0  0  0  0  0  0
   -2.1552    1.8058   -2.4737 H   0  0  0  0  0  0  0  0  0  0  0  0
  1  2  2  0
  2  3  1  0
  3  4  2  0
  3  5  1  0
  5  6  2  0
  6  7  1  0
  7  8  2  0
  8  9  1  0
  9 10  2  0
 10 11  1  0
 11 12  2  0
 12 13  1  0
 13 14  2  0
 14 15  1  0
 15 16  2  0
 16  2  1  0
 10  5  1  0
 16 11  1  0
  6 17  1  0
  7 18  1  0
  8 19  1  0
 13 20  1  0
 14 21  1  0
 15 22  1  0
M  END
$$$$

     RDKit          3D

 22 24  0  0  0  0  0  0  0  0999 V2000
   -1.1828   -3.0952    0.4816 O   0  0  0  0  0  0  0  0  0  0  0  0
   -0.6435   -1.9957    0.2786 C   0  0  0  0  0  0  0  0  0  0  0  0
    0.8574   -1.9308    0.1331 C   0  0  0  0  0  0  0  0  0  0  0  0
    1.5096   -2.9858    0.1653 O   0  0  0  0  0  0  0  0  0  0  0  0
    1.4907   -0.6139   -0.0393 C   0  0  0  0  0  0  0  0  0  0  0  0
    2.8711   -0.5056   -0.1376 C   0  0  0  0  0  0  0  0  0  0  0  0
    3.4302    0.7460   -0.2811 C   0  0  0  0  0  0  0  0  0  0  0  0
    2.5675    1.8592   -0.3349 C   0  0  0  0  0  0  0  0  0  0  0  0
    1.2354    1.7675   -0.2523 N   0  0  0  0  0  0  0  0  0  0  0  0
    0.7068    0.5649   -0.1026 C   0  0  0  0  0  0  0  0  0  0  0  0
   -0.7632    0.4938   -0.0117 C   0  0  0  0  0  0  0  0  0  0  0  0
   -1.4221    1.6349   -0.1127 N   0  0  0  0  0  0  0  0  0  0  0  0
   -2.7583    1.5975   -0.0283 C   0  0  0  0  0  0  0  0  0  0  0  0
   -3.4938    0.4099    0.1654 C   0  0  0  0  0  0  0  0  0  0  0  0
   -2.7989   -0.7752    0.2659 C   0  0  0  0  0  0  0  0  0  0  0  0
   -1.4145   -0.7491    0.1781 C   0  0  0  0  0  0  0  0  0  0  0  0
    3.4764   -1.4020   -0.1027 H   0  0  0  0  0  0  0  0  0  0  0  0
    4.4964    0.8743   -0.3512 H   0  0  0  0  0  0  0  0  0  0  0  0
    2.9728    2.8523   -0.4523 H   0  0  0  0  0  0  0  0  0  0  0  0
   -3.2709    2.5428   -0.1167 H   0  0  0  0  0  0  0  0  0  0  0  0
   -4.5684    0.4339    0.2377 H   0  0  0  0  0  0  0  0  0  0  0  0
   -3.2978   -1.7236    0.4178 H   0  0  0  0  0  0  0  0  0  0  0  0
  1  2  2  0
  2  3  1  0
  3  4  2  0
  3  5  1  0
  5  6  2  0
  6  7  1  0
  7  8  2  0
  8  9  1  0
  9 10  2  0
 10 11  1  0
 11 12  2  0
 12 13  1  0
 13 14  2  0
 14 15  1  0
 15 16  2  0
 16  2  1  0
 10  5  1  0
 16 11  1  0
  6 17  1  0
  7 18  1  0
  8 19  1  0
 13 20  1  0
 14 21  1  0
 15 22  1  0
M  END
$$$$

     RDKit          3D

 22 24  0  0  0  0  0  0  0  0999 V2000
    0.8579   -1.4067    2.9081 O   0  0  0  0  0  0  0  0  0  0  0  0
    0.4413   -0.9311    1.8399 C   0  0  0  0  0  0  0  0  0  0  0  0
   -0.9444   -1.2930    1.3771 C   0  0  0  0  0  0  0  0  0  0  0  0
   -1.6405   -2.0418    2.0829 O   0  0  0  0  0  0  0  0  0  0  0  0
   -1.4228   -0.7421    0.1024 C   0  0  0  0  0  0  0  0  0  0  0  0
   -2.6822   -1.0791   -0.3699 C   0  0  0  0  0  0  0  0  0  0  0  0
   -3.1062   -0.5495   -1.5692 C   0  0  0  0  0  0  0  0  0  0  0  0
   -2.2328    0.3178   -2.2586 C   0  0  0  0  0  0  0  0  0  0  0  0
   -1.0176    0.6524   -1.8104 N   0  0  0  0  0  0  0  0  0  0  0  0
   -0.6137    0.1325   -0.6645 C   0  0  0  0  0  0  0  0  0  0  0  0
    0.7341    0.5091   -0.1950 C   0  0  0  0  0  0  0  0  0  0  0  0
    1.4168    1.3549   -0.9460 N   0  0  0  0  0  0  0  0  0  0  0  0
    2.6532    1.6872   -0.5513 C   0  0  0  0  0  0  0  0  0  0  0  0
    3.2645    1.1795    0.6135 C   0  0  0  0  0  0  0  0  0  0  0  0
    2.5425    0.3033    1.3931 C   0  0  0  0  0  0  0  0  0  0  0  0
    1.2534   -0.0329    1.0064 C   0  0  0  0  0  0  0  0  0  0  0  0
   -3.2968   -1.7535    0.2133 H   0  0  0  0  0  0  0  0  0  0  0  0
   -4.0780   -0.7827   -1.9706 H   0  0  0  0  0  0  0  0  0  0  0  0
   -2.5316    0.7504   -3.2023 H   0  0  0  0  0  0  0  0  0  0  0  0
    3.1880    2.3825   -1.1816 H   0  0  0  0  0  0  0  0  0  0  0  0
    4.2670    1.4675    0.8816 H   0  0  0  0  0  0  0  0  0  0  0  0
    2.9478   -0.1249    2.3011 H   0  0  0  0  0  0  0  0  0  0  0  0
  1  2  2  0
  2  3  1  0
  3  4  2  0
  3  5  1  0
  5  6  2  0
  6  7  1  0
  7  8  2  0
  8  9  1  0
  9 10  2  0
 10 11  1  0
 11 12  2  0
 12 13  1  0
 13 14  2  0
 14 15  1  0
 15 16  2  0
 16  2  1  0
 10  5  1  0
 16 11  1  0
  6 17  1  0
  7 18  1  0
  8 19  1  0
 13 20  1  0
 14 21  1  0
 15 22  1  0
M  END
$$$$
