
     RDKit          3D

 22 24  0  0  0  0  0  0  0  0999 V2000
    2.2588    2.6369    0.4851 C   0  0  0  0  0  0  0  0  0  0  0  0
    2.0021    2.3348   -0.8657 C   0  0  0  0  0  0  0  0  0  0  0  0
    1.1742    1.3584   -1.2605 N   0  0  0  0  0  0  0  0  0  0  0  0
    0.5621    0.6479   -0.3184 C   0  0  0  0  0  0  0  0  0  0  0  0
    0.7685    0.8547    1.0858 C   0  0  0  0  0  0  0  0  0  0  0  0
    1.6404    1.8930    1.4600 C   0  0  0  0  0  0  0  0  0  0  0  0
    0.1066    0.0302    2.0386 C   0  0  0  0  0  0  0  0  0  0  0  0
   -0.7396   -0.9457    1.6535 C   0  0  0  0  0  0  0  0  0  0  0  0
   -1.0052   -1.1908    0.2759 C   0  0  0  0  0  0  0  0  0  0  0  0
   -1.8912   -2.1938   -0.1599 C   0  0  0  0  0  0  0  0  0  0  0  0
   -2.0990   -2.3717   -1.5067 C   0  0  0  0  0  0  0  0  0  0  0  0
   -1.4117   -1.5431   -2.4141 C   0  0  0  0  0  0  0  0  0  0  0  0
   -0.5692   -0.5739   -2.0370 N   0  0  0  0  0  0  0  0  0  0  0  0
   -0.3610   -0.4025   -0.7352 C   0  0  0  0  0  0  0  0  0  0  0  0
    2.9308    3.4388    0.7394 H   0  0  0  0  0  0  0  0  0  0  0  0
    2.4844    2.8990   -1.6448 H   0  0  0  0  0  0  0  0  0  0  0  0
    1.8017    2.0764    2.5020 H   0  0  0  0  0  0  0  0  0  0  0  0
    0.3020    0.2153    3.0892 H   0  0  0  0  0  0  0  0  0  0  0  0
   -1.2381   -1.5697    2.3870 H   0  0  0  0  0  0  0  0  0  0  0  0
   -2.3855   -2.7987    0.5718 H   0  0  0  0  0  0  0  0  0  0  0  0
   -2.7770   -3.1249   -1.8731 H   0  0  0  0  0  0  0  0  0  0  0  0
   -1.5542   -1.6708   -3.4730 H   0  0  0  0  0  0  0  0  0  0  0  0
  1  2  2  0
  2  3  1  0
  3  4  2  0
  4  5  1  0
  5  6  2  0
  5  7  1  0
  7  8  2  0
  8  9  1  0
  9 10  2  0
 10 11  1  0
 11 12  2  0
 12 13  1  0
 13 14  2  0
  6  1  1  0
 14  9  1  0
 14  4  1  0
  1 15  1  0
  2 16  1  0
  6 17  1  0
  7 18  1  0
  8 19  1  0
 10 20  1  0
 11 21  1  0
 12 22  1  0
M  END
$$$$

     RDKit          3D

 22 24  0  0  0  0  0  0  0  0999 V2000
   -3.4517   -0.3930    0.4630 C   0  0  0  0  0  0  0  0  0  0  0  0
   -2.6966   -1.5566    0.7018 C   0  0  0  0  0  0  0  0  0  0  0  0
   -1.3637   -1.6131    0.5799 N   0  0  0  0  0  0  0  0  0  0  0  0
   -0.7308   -0.5052    0.2055 C   0  0  0  0  0  0  0  0  0  0  0  0
   -1.4024    0.7293   -0.0825 C   0  0  0  0  0  0  0  0  0  0  0  0
   -2.8012    0.7490    0.0650 C   0  0  0  0  0  0  0  0  0  0  0  0
   -0.6577    1.8697   -0.4921 C   0  0  0  0  0  0  0  0  0  0  0  0
    0.6848    1.8256   -0.6095 C   0  0  0  0  0  0  0  0  0  0  0  0
    1.4133    0.6350   -0.3318 C   0  0  0  0  0  0  0  0  0  0  0  0
    2.8133    0.5564   -0.4408 C   0  0  0  0  0  0  0  0  0  0  0  0
    3.4465   -0.6249   -0.1380 C   0  0  0  0  0  0  0  0  0  0  0  0
    2.6702   -1.7314    0.2601 C   0  0  0  0  0  0  0  0  0  0  0  0
    1.3361   -1.6970    0.3724 N   0  0  0  0  0  0  0  0  0  0  0  0
    0.7224   -0.5534    0.0819 C   0  0  0  0  0  0  0  0  0  0  0  0
   -4.5208   -0.4070    0.5928 H   0  0  0  0  0  0  0  0  0  0  0  0
   -3.1896   -2.4649    1.0031 H   0  0  0  0  0  0  0  0  0  0  0  0
   -3.3301    1.6580   -0.1343 H   0  0  0  0  0  0  0  0  0  0  0  0
   -1.2045    2.7810   -0.7052 H   0  0  0  0  0  0  0  0  0  0  0  0
    1.2426    2.7008   -0.9232 H   0  0  0  0  0  0  0  0  0  0  0  0
    3.3564    1.4236   -0.7587 H   0  0  0  0  0  0  0  0  0  0  0  0
    4.5180   -0.7119   -0.1997 H   0  0  0  0  0  0  0  0  0  0  0  0
    3.1456   -2.6700    0.4902 H   0  0  0  0  0  0  0  0  0  0  0  0
  1  2  2  0
  2  3  1  0
  3  4  2  0
  4  5  1  0
  5  6  2  0
  5  7  1  0
  7  8  2  0
  8  9  1  0
  9 10  2  0
 10 11  1  0
 11 12  2  0
 12 13  1  0
 13 14  2  0
  6  1  1  0
 14  9  1  0
 14  4  1  0
  1 15  1  0
  2 16  1  0
  6 17  1  0
  7 18  1  0
  8 19  1  0
 10 20  1  0
 11 21  1  0
 12 22  1  0
M  END
$$$$

     RDKit          3D

 22 24  0  0  0  0  0  0  0  0999 V2000
    2.4210   -1.7189    1.8649 C   0  0  0  0  0  0  0  0  0  0  0  0
    2.7791   -1.4830    0.5238 C   0  0  0  0  0  0  0  0  0  0  0  0
    1.9887   -0.8508   -0.3547 N   0  0  0  0  0  0  0  0  0  0  0  0
    0.8112   -0.4106    0.0815 C   0  0  0  0  0  0  0  0  0  0  0  0
    0.3474   -0.5944    1.4257 C   0  0  0  0  0  0  0  0  0  0  0  0
    1.2022   -1.2741    2.3126 C   0  0  0  0  0  0  0  0  0  0  0  0
   -0.9274   -0.0959    1.8155 C   0  0  0  0  0  0  0  0  0  0  0  0
   -1.7290    0.5449    0.9413 C   0  0  0  0  0  0  0  0  0  0  0  0
   -1.3294    0.7588   -0.4072 C   0  0  0  0  0  0  0  0  0  0  0  0
   -2.1382    1.4294   -1.3418 C   0  0  0  0  0  0  0  0  0  0  0  0
   -1.6839    1.5988   -2.6276 C   0  0  0  0  0  0  0  0  0  0  0  0
   -0.4173    1.0889   -2.9729 C   0  0  0  0  0  0  0  0  0  0  0  0
    0.3821    0.4483   -2.1102 N   0  0  0  0  0  0  0  0  0  0  0  0
   -0.0558    0.2833   -0.8656 C   0  0  0  0  0  0  0  0  0  0  0  0
    3.0964   -2.2448    2.5197 H   0  0  0  0  0  0  0  0  0  0  0  0
    3.7314   -1.8257    0.1557 H   0  0  0  0  0  0  0  0  0  0  0  0
    0.8809   -1.4284    3.3213 H   0  0  0  0  0  0  0  0  0  0  0  0
   -1.2387   -0.2535    2.8419 H   0  0  0  0  0  0  0  0  0  0  0  0
   -2.7040    0.9100    1.2443 H   0  0  0  0  0  0  0  0  0  0  0  0
   -3.0930    1.7975   -1.0269 H   0  0  0  0  0  0  0  0  0  0  0  0
   -2.2787    2.1138   -3.3645 H   0  0  0  0  0  0  0  0  0  0  0  0
   -0.0451    1.2065   -3.9767 H   0  0  0  0  0  0  0  0  0  0  0  0
  1  2  2  0
  2  3  1  0
  3  4  2  0
  4  5  1  0
  5  6  2  0
  5  7  1  0
  7  8  2  0
  8  9  1  0
  9 10  2  0
 10 11  1  0
 11 12  2  0
 12 13  1  0
 13 14  2  0
  6  1  1  0
 14  9  1  0
 14  4  1  0
  1 15  1  0
  2 16  1  0
  6 17  1  0
  7 18  1  0
  8 19  1  0
 10 20  1  0
 11 21  1  0
 12 22  1  0
M  END
$$$$

     RDKit          3D

 22 24  0  0  0  0  0  0  0  0999 V2000
   -0.6972   -3.2834   -1.0163 C   0  0  0  0  0  0  0  0  0  0  0  0
   -1.3411   -2.8939    0.1732 C   0  0  0  0  0  0  0  0  0  0  0  0
   -1.1978   -1.6834    0.7280 N   0  0  0  0  0  0  0  0  0  0  0  0
   -0.4120   -0.8057    0.1113 C   0  0  0  0  0  0  0  0  0  0  0  0
    0.2963   -1.0973   -1.1006 C   0  0  0  0  0  0  0  0  0  0  0  0
    0.1220   -2.3807   -1.6506 C   0  0  0  0  0  0  0  0  0  0  0  0
    1.1294   -0.1108   -1.6992 C   0  0  0  0  0  0  0  0  0  0  0  0
    1.2784    1.1088   -1.1456 C   0  0  0  0  0  0  0  0  0  0  0  0
    0.5994    1.4642    0.0546 C   0  0  0  0  0  0  0  0  0  0  0  0
    0.7263    2.7316    0.6524 C   0  0  0  0  0  0  0  0  0  0  0  0
    0.0286    3.0064    1.8036 C   0  0  0  0  0  0  0  0  0  0  0  0
   -0.8000    2.0076    2.3509 C   0  0  0  0  0  0  0  0  0  0  0  0
   -0.9394    0.7876    1.8161 N   0  0  0  0  0  0  0  0  0  0  0  0
   -0.2605    0.5185    0.7047 C   0  0  0  0  0  0  0  0  0  0  0  0
   -0.8476   -4.2730   -1.4150 H   0  0  0  0  0  0  0  0  0  0  0  0
   -1.9877   -3.5836    0.6895 H   0  0  0  0  0  0  0  0  0  0  0  0
    0.6364   -2.6246   -2.5571 H   0  0  0  0  0  0  0  0  0  0  0  0
    1.6416   -0.3716   -2.6197 H   0  0  0  0  0  0  0  0  0  0  0  0
    1.9207    1.8530   -1.6023 H   0  0  0  0  0  0  0  0  0  0  0  0
    1.3651    3.4563    0.1912 H   0  0  0  0  0  0  0  0  0  0  0  0
    0.1043    3.9675    2.2845 H   0  0  0  0  0  0  0  0  0  0  0  0
   -1.3650    2.2065    3.2465 H   0  0  0  0  0  0  0  0  0  0  0  0
  1  2  2  0
  2  3  1  0
  3  4  2  0
  4  5  1  0
  5  6  2  0
  5  7  1  0
  7  8  2  0
  8  9  1  0
  9 10  2  0
 10 11  1  0
 11 12  2  0
 12 13  1  0
 13 14  2  0
  6  1  1  0
 14  9  1  0
 14  4  1  0
  1 15  1  0
  2 16  1  0
  6 17  1  0
  7 18  1  0
  8 19  1  0
 10 20  1  0
 11 21  1  0
 12 22  1  0
M  END
$$$$

     RDKit          3D

 22 24  0  0  0  0  0  0  0  0999 V2000
   -3.0951    1.4551   -0.7773 C   0  0  0  0  0  0  0  0  0  0  0  0
   -2.3560    2.1479    0.2004 C   0  0  0  0  0  0  0  0  0  0  0  0
   -1.1496    1.7571    0.6362 N   0  0  0  0  0  0  0  0  0  0  0  0
   -0.6332    0.6518    0.1091 C   0  0  0  0  0  0  0  0  0  0  0  0
   -1.3057   -0.1382   -0.8832 C   0  0  0  0  0  0  0  0  0  0  0  0
   -2.5646    0.3119   -1.3211 C   0  0  0  0  0  0  0  0  0  0  0  0
   -0.6980   -1.3221   -1.3858 C   0  0  0  0  0  0  0  0  0  0  0  0
    0.5117   -1.7279   -0.9535 C   0  0  0  0  0  0  0  0  0  0  0  0
    1.2378   -0.9846    0.0188 C   0  0  0  0  0  0  0  0  0  0  0  0
    2.5076   -1.3778    0.4784 C   0  0  0  0  0  0  0  0  0  0  0  0
    3.1505   -0.6103    1.4183 C   0  0  0  0  0  0  0  0  0  0  0  0
    2.5139    0.5533    1.8933 C   0  0  0  0  0  0  0  0  0  0  0  0
    1.3065    0.9618    1.4793 N   0  0  0  0  0  0  0  0  0  0  0  0
    0.6817    0.2167    0.5725 C   0  0  0  0  0  0  0  0  0  0  0  0
   -4.0610    1.8199   -1.0844 H   0  0  0  0  0  0  0  0  0  0  0  0
   -2.7580    3.0428    0.6431 H   0  0  0  0  0  0  0  0  0  0  0  0
   -3.0835   -0.2525   -2.0687 H   0  0  0  0  0  0  0  0  0  0  0  0
   -1.2414   -1.8902   -2.1321 H   0  0  0  0  0  0  0  0  0  0  0  0
    0.9643   -2.6348   -1.3375 H   0  0  0  0  0  0  0  0  0  0  0  0
    2.9443   -2.2704    0.0804 H   0  0  0  0  0  0  0  0  0  0  0  0
    4.1245   -0.8815    1.7873 H   0  0  0  0  0  0  0  0  0  0  0  0
    3.0032    1.1722    2.6267 H   0  0  0  0  0  0  0  0  0  0  0  0
  1  2  2  0
  2  3  1  0
  3  4  2  0
  4  5  1  0
  5  6  2  0
  5  7  1  0
  7  8  2  0
  8  9  1  0
  9 10  2  0
 10 11  1  0
 11 12  2  0
 12 13  1  0
 13 14  2  0
  6  1  1  0
 14  9  1  0
 14  4  1  0
  1 15  1  0
  2 16  1  0
  6 17  1  0
  7 18  1  0
  8 19  1  0
 10 20  1  0
 11 21  1  0
 12 22  1  0
M  END
$$$$

     RDKit          3D

 22 24  0  0  0  0  0  0  0  0999 V2000
   -1.7965   -0.7736   -2.9159 C   0  0  0  0  0  0  0  0  0  0  0  0
   -2.0073   -1.6650   -1.8460 C   0  0  0  0  0  0  0  0  0  0  0  0
   -1.4157   -1.5429   -0.6512 N   0  0  0  0  0  0  0  0  0  0  0  0
   -0.5876   -0.5191   -0.4691 C   0  0  0  0  0  0  0  0  0  0  0  0
   -0.3021    0.4497   -1.4882 C   0  0  0  0  0  0  0  0  0  0  0  0
   -0.9435    0.2869   -2.7306 C   0  0  0  0  0  0  0  0  0  0  0  0
    0.5929    1.5229   -1.2194 C   0  0  0  0  0  0  0  0  0  0  0  0
    1.1965    1.6502   -0.0214 C   0  0  0  0  0  0  0  0  0  0  0  0
    0.9652    0.7201    1.0290 C   0  0  0  0  0  0  0  0  0  0  0  0
    1.5870    0.8227    2.2872 C   0  0  0  0  0  0  0  0  0  0  0  0
    1.3104   -0.1118    3.2534 C   0  0  0  0  0  0  0  0  0  0  0  0
    0.4060   -1.1491    2.9539 C   0  0  0  0  0  0  0  0  0  0  0  0
   -0.2042   -1.2797    1.7697 N   0  0  0  0  0  0  0  0  0  0  0  0
    0.0672   -0.3806    0.8295 C   0  0  0  0  0  0  0  0  0  0  0  0
   -2.3005   -0.9256   -3.8556 H   0  0  0  0  0  0  0  0  0  0  0  0
   -2.6809   -2.4967   -1.9637 H   0  0  0  0  0  0  0  0  0  0  0  0
   -0.7479    0.9966   -3.5076 H   0  0  0  0  0  0  0  0  0  0  0  0
    0.7776    2.2396   -2.0116 H   0  0  0  0  0  0  0  0  0  0  0  0
    1.8765    2.4732    0.1712 H   0  0  0  0  0  0  0  0  0  0  0  0
    2.2641    1.6336    2.4619 H   0  0  0  0  0  0  0  0  0  0  0  0
    1.7710   -0.0615    4.2254 H   0  0  0  0  0  0  0  0  0  0  0  0
    0.1719   -1.8897    3.6990 H   0  0  0  0  0  0  0  0  0  0  0  0
  1  2  2  0
  2  3  1  0
  3  4  2  0
  4  5  1  0
  5  6  2  0
  5  7  1  0
  7  8  2  0
  8  9  1  0
  9 10  2  0
 10 11  1  0
 11 12  2  0
 12 13  1  0
 13 14  2  0
  6  1  1  0
 14  9  1  0
 14  4  1  0
  1 15  1  0
  2 16  1  0
  6 17  1  0
  7 18  1  0
  8 19  1  0
 10 20  1  0
 11 21  1  0
 12 22  1  0
M  END
$$$$

     RDKit          3D

 22 24  0  0  0  0  0  0  0  0999 V2000
   -1.7116    0.4813    3.0217 C   0  0  0  0  0  0  0  0  0  0  0  0
   -1.0443   -0.7545    2.9196 C   0  0  0  0  0  0  0  0  0  0  0  0
   -0.3426   -1.1308    1.8433 N   0  0  0  0  0  0  0  0  0  0  0  0
   -0.2800   -0.2853    0.8188 C   0  0  0  0  0  0  0  0  0  0  0  0
   -0.9347    0.9911    0.8077 C   0  0  0  0  0  0  0  0  0  0  0  0
   -1.6541    1.3533    1.9613 C   0  0  0  0  0  0  0  0  0  0  0  0
   -0.8367    1.8337   -0.3344 C   0  0  0  0  0  0  0  0  0  0  0  0
   -0.1076    1.4747   -1.4102 C   0  0  0  0  0  0  0  0  0  0  0  0
    0.5862    0.2324   -1.4526 C   0  0  0  0  0  0  0  0  0  0  0  0
    1.3761   -0.1610   -2.5479 C   0  0  0  0  0  0  0  0  0  0  0  0
    1.9996   -1.3850   -2.5231 C   0  0  0  0  0  0  0  0  0  0  0  0
    1.8319   -2.2114   -1.3946 C   0  0  0  0  0  0  0  0  0  0  0  0
    1.0987   -1.8682   -0.3280 N   0  0  0  0  0  0  0  0  0  0  0  0
    0.4983   -0.6809   -0.3499 C   0  0  0  0  0  0  0  0  0  0  0  0
   -2.2580    0.7294    3.9168 H   0  0  0  0  0  0  0  0  0  0  0  0
   -1.0804   -1.4556    3.7357 H   0  0  0  0  0  0  0  0  0  0  0  0
   -2.1409    2.3067    1.9857 H   0  0  0  0  0  0  0  0  0  0  0  0
   -1.3615    2.7826   -0.3138 H   0  0  0  0  0  0  0  0  0  0  0  0
   -0.0325    2.1301   -2.2703 H   0  0  0  0  0  0  0  0  0  0  0  0
    1.4719    0.5071   -3.3795 H   0  0  0  0  0  0  0  0  0  0  0  0
    2.6123   -1.7139   -3.3462 H   0  0  0  0  0  0  0  0  0  0  0  0
    2.3098   -3.1758   -1.3601 H   0  0  0  0  0  0  0  0  0  0  0  0
  1  2  2  0
  2  3  1  0
  3  4  2  0
  4  5  1  0
  5  6  2  0
  5  7  1  0
  7  8  2  0
  8  9  1  0
  9 10  2  0
 10 11  1  0
 11 12  2  0
 12 13  1  0
 13 14  2  0
  6  1  1  0
 14  9  1  0
 14  4  1  0
  1 15  1  0
  2 16  1  0
  6 17  1  0
  7 18  1  0
  8 19  1  0
 10 20  1  0
 11 21  1  0
 12 22  1  0
M  END
$$$$

     RDKit          3D

 22 24  0  0  0  0  0  0  0  0999 V2000
    2.5795   -2.1297   -1.0514 C   0  0  0  0  0  0  0  0  0  0  0  0
    2.3409   -2.1451    0.3361 C   0  0  0  0  0  0  0  0  0  0  0  0
    1.3952   -1.4074    0.9319 N   0  0  0  0  0  0  0  0  0  0  0  0
    0.6486   -0.6180    0.1642 C   0  0  0  0  0  0  0  0  0  0  0  0
    0.8087   -0.5185   -1.2559 C   0  0  0  0  0  0  0  0  0  0  0  0
    1.8084   -1.3150   -1.8452 C   0  0  0  0  0  0  0  0  0  0  0  0
   -0.0177    0.3594   -2.0117 C   0  0  0  0  0  0  0  0  0  0  0  0
   -0.9665    1.1123   -1.4204 C   0  0  0  0  0  0  0  0  0  0  0  0
   -1.1832    1.0565   -0.0145 C   0  0  0  0  0  0  0  0  0  0  0  0
   -2.1658    1.8221    0.6399 C   0  0  0  0  0  0  0  0  0  0  0  0
   -2.3047    1.7203    2.0036 C   0  0  0  0  0  0  0  0  0  0  0  0
   -1.4523    0.8508    2.7115 C   0  0  0  0  0  0  0  0  0  0  0  0
   -0.5189    0.0964    2.1238 N   0  0  0  0  0  0  0  0  0  0  0  0
   -0.3788    0.1963    0.8049 C   0  0  0  0  0  0  0  0  0  0  0  0
    3.3586   -2.7445   -1.4722 H   0  0  0  0  0  0  0  0  0  0  0  0
    2.9315   -2.7786    0.9773 H   0  0  0  0  0  0  0  0  0  0  0  0
    1.9407   -1.2703   -2.9063 H   0  0  0  0  0  0  0  0  0  0  0  0
    0.1409    0.4056   -3.0830 H   0  0  0  0  0  0  0  0  0  0  0  0
   -1.5865    1.7839   -2.0034 H   0  0  0  0  0  0  0  0  0  0  0  0
   -2.7919    2.4676    0.0581 H   0  0  0  0  0  0  0  0  0  0  0  0
   -3.0517    2.2898    2.5305 H   0  0  0  0  0  0  0  0  0  0  0  0
   -1.5350    0.7660    3.7822 H   0  0  0  0  0  0  0  0  0  0  0  0
  1  2  2  0
  2  3  1  0
  3  4  2  0
  4  5  1  0
  5  6  2  0
  5  7  1  0
  7  8  2  0
  8  9  1  0
  9 10  2  0
 10 11  1  0
 11 12  2  0
 12 13  1  0
 13 14  2  0
  6  1  1  0
 14  9  1  0
 14  4  1  0
  1 15  1  0
  2 16  1  0
  6 17  1  0
  7 18  1  0
  8 19  1  0
 10 20  1  0
 11 21  1  0
 12 22  1  0
M  END
$$$$

     RDKit          3D

 22 24  0  0  0  0  0  0  0  0999 V2000
   -0.5318    1.1585   -3.2681 C   0  0  0  0  0  0  0  0  0  0  0  0
   -1.1473    1.9349   -2.2679 C   0  0  0  0  0  0  0  0  0  0  0  0
   -1.0705    1.6550   -0.9579 N   0  0  0  0  0  0  0  0  0  0  0  0
   -0.3639    0.5891   -0.5959 C   0  0  0  0  0  0  0  0  0  0  0  0
    0.3070   -0.2686   -1.5296 C   0  0  0  0  0  0  0  0  0  0  0  0
    0.1928    0.0531   -2.8951 C   0  0  0  0  0  0  0  0  0  0  0  0
    1.0525   -1.3879   -1.0636 C   0  0  0  0  0  0  0  0  0  0  0  0
    1.1506   -1.6673    0.2509 C   0  0  0  0  0  0  0  0  0  0  0  0
    0.5011   -0.8647    1.2293 C   0  0  0  0  0  0  0  0  0  0  0  0
    0.5764   -1.1345    2.6077 C   0  0  0  0  0  0  0  0  0  0  0  0
   -0.0755   -0.3104    3.4928 C   0  0  0  0  0  0  0  0  0  0  0  0
   -0.8038    0.7848    2.9898 C   0  0  0  0  0  0  0  0  0  0  0  0
   -0.8958    1.0761    1.6859 N   0  0  0  0  0  0  0  0  0  0  0  0
   -0.2695    0.2766    0.8273 C   0  0  0  0  0  0  0  0  0  0  0  0
   -0.6359    1.4300   -4.3059 H   0  0  0  0  0  0  0  0  0  0  0  0
   -1.7182    2.8063   -2.5373 H   0  0  0  0  0  0  0  0  0  0  0  0
    0.6741   -0.5750   -3.6157 H   0  0  0  0  0  0  0  0  0  0  0  0
    1.5451   -2.0100   -1.8007 H   0  0  0  0  0  0  0  0  0  0  0  0
    1.7333   -2.5130    0.5974 H   0  0  0  0  0  0  0  0  0  0  0  0
    1.1421   -1.9826    2.9362 H   0  0  0  0  0  0  0  0  0  0  0  0
   -0.0379   -0.4912    4.5539 H   0  0  0  0  0  0  0  0  0  0  0  0
   -1.3249    1.4407    3.6666 H   0  0  0  0  0  0  0  0  0  0  0  0
  1  2  2  0
  2  3  1  0
  3  4  2  0
  4  5  1  0
  5  6  2  0
  5  7  1  0
  7  8  2  0
  8  9  1  0
  9 10  2  0
 10 11  1  0
 11 12  2  0
 12 13  1  0
 13 14  2  0
  6  1  1  0
 14  9  1  0
 14  4  1  0
  1 15  1  0
  2 16  1  0
  6 17  1  0
  7 18  1  0
  8 19  1  0
 10 20  1  0
 11 21  1  0
 12 22  1  0
M  END
$$$$

     RDKit          3D

 22 24  0  0  0  0  0  0  0  0999 V2000
   -2.6813    0.0058   -2.2597 C   0  0  0  0  0  0  0  0  0  0  0  0
   -1.4756   -0.4951   -2.7860 C   0  0  0  0  0  0  0  0  0  0  0  0
   -0.3369   -0.5696   -2.0865 N   0  0  0  0  0  0  0  0  0  0  0  0
   -0.3600   -0.1603   -0.8215 C   0  0  0  0  0  0  0  0  0  0  0  0
   -1.5301    0.3715   -0.1851 C   0  0  0  0  0  0  0  0  0  0  0  0
   -2.7043    0.4412   -0.9570 C   0  0  0  0  0  0  0  0  0  0  0  0
   -1.4725    0.7954    1.1721 C   0  0  0  0  0  0  0  0  0  0  0  0
   -0.3340    0.7028    1.8878 C   0  0  0  0  0  0  0  0  0  0  0  0
    0.8634    0.1885    1.3152 C   0  0  0  0  0  0  0  0  0  0  0  0
    2.0683    0.0860    2.0346 C   0  0  0  0  0  0  0  0  0  0  0  0
    3.1802   -0.4255    1.4115 C   0  0  0  0  0  0  0  0  0  0  0  0
    3.0806   -0.8325    0.0671 C   0  0  0  0  0  0  0  0  0  0  0  0
    1.9523   -0.7506   -0.6517 N   0  0  0  0  0  0  0  0  0  0  0  0
    0.8756   -0.2522   -0.0499 C   0  0  0  0  0  0  0  0  0  0  0  0
   -3.5647    0.0438   -2.8744 H   0  0  0  0  0  0  0  0  0  0  0  0
   -1.4367   -0.8422   -3.8047 H   0  0  0  0  0  0  0  0  0  0  0  0
   -3.5937    0.8325   -0.5078 H   0  0  0  0  0  0  0  0  0  0  0  0
   -2.3778    1.1923    1.6172 H   0  0  0  0  0  0  0  0  0  0  0  0
   -0.3022    1.0222    2.9231 H   0  0  0  0  0  0  0  0  0  0  0  0
    2.0891    0.4043    3.0567 H   0  0  0  0  0  0  0  0  0  0  0  0
    4.1180   -0.5192    1.9343 H   0  0  0  0  0  0  0  0  0  0  0  0
    3.9423   -1.2391   -0.4352 H   0  0  0  0  0  0  0  0  0  0  0  0
  1  2  2  0
  2  3  1  0
  3  4  2  0
  4  5  1  0
  5  6  2  0
  5  7  1  0
  7  8  2  0
  8  9  1  0
  9 10  2  0
 10 11  1  0
 11 12  2  0
 12 13  1  0
 13 14  2  0
  6  1  1  0
 14  9  1  0
 14  4  1  0
  1 15  1  0
  2 16  1  0
  6 17  1  0
  7 18  1  0
  8 19  1  0
 10 20  1  0
 11 21  1  0
 12 22  1  0
M  END
$$$$

     RDKit          3D

 22 24  0  0  0  0  0  0  0  0999 V2000
   -1.6754    3.0066    0.6550 C   0  0  0  0  0  0  0  0  0  0  0  0
   -1.9164    1.9879    1.5967 C   0  0  0  0  0  0  0  0  0  0  0  0
   -1.3783    0.7650    1.5181 N   0  0  0  0  0  0  0  0  0  0  0  0
   -0.5643    0.5139    0.4957 C   0  0  0  0  0  0  0  0  0  0  0  0
   -0.2584    1.4712   -0.5277 C   0  0  0  0  0  0  0  0  0  0  0  0
   -0.8492    2.7420   -0.4105 C   0  0  0  0  0  0  0  0  0  0  0  0
    0.6088    1.1206   -1.5995 C   0  0  0  0  0  0  0  0  0  0  0  0
    1.1741   -0.1005   -1.6714 C   0  0  0  0  0  0  0  0  0  0  0  0
    0.9182   -1.0943   -0.6839 C   0  0  0  0  0  0  0  0  0  0  0  0
    1.4909   -2.3788   -0.7273 C   0  0  0  0  0  0  0  0  0  0  0  0
    1.1924   -3.2849    0.2622 C   0  0  0  0  0  0  0  0  0  0  0  0
    0.3160   -2.9000    1.2957 C   0  0  0  0  0  0  0  0  0  0  0  0
   -0.2428   -1.6861    1.3765 N   0  0  0  0  0  0  0  0  0  0  0  0
    0.0425   -0.8102    0.4154 C   0  0  0  0  0  0  0  0  0  0  0  0
   -2.1368    3.9732    0.7734 H   0  0  0  0  0  0  0  0  0  0  0  0
   -2.5624    2.1731    2.4387 H   0  0  0  0  0  0  0  0  0  0  0  0
   -0.6367    3.4794   -1.1579 H   0  0  0  0  0  0  0  0  0  0  0  0
    0.8053    1.8701   -2.3595 H   0  0  0  0  0  0  0  0  0  0  0  0
    1.8395   -0.3554   -2.4887 H   0  0  0  0  0  0  0  0  0  0  0  0
    2.1513   -2.6207   -1.5356 H   0  0  0  0  0  0  0  0  0  0  0  0
    1.6181   -4.2747    0.2575 H   0  0  0  0  0  0  0  0  0  0  0  0
    0.0636   -3.5977    2.0769 H   0  0  0  0  0  0  0  0  0  0  0  0
  1  2  2  0
  2  3  1  0
  3  4  2  0
  4  5  1  0
  5  6  2  0
  5  7  1  0
  7  8  2  0
  8  9  1  0
  9 10  2  0
 10 11  1  0
 11 12  2  0
 12 13  1  0
 13 14  2  0
  6  1  1  0
 14  9  1  0
 14  4  1  0
  1 15  1  0
  2 16  1  0
  6 17  1  0
  7 18  1  0
  8 19  1  0
 10 20  1  0
 11 21  1  0
 12 22  1  0
M  END
$$$$

     RDKit          3D

 22 24  0  0  0  0  0  0  0  0999 V2000
   -2.8797    1.5646    1.2487 C   0  0  0  0  0  0  0  0  0  0  0  0
   -3.0884    0.8104    0.0783 C   0  0  0  0  0  0  0  0  0  0  0  0
   -2.1147    0.1451   -0.5583 N   0  0  0  0  0  0  0  0  0  0  0  0
   -0.8915    0.1927   -0.0370 C   0  0  0  0  0  0  0  0  0  0  0  0
   -0.5684    0.9238    1.1527 C   0  0  0  0  0  0  0  0  0  0  0  0
   -1.6156    1.6202    1.7839 C   0  0  0  0  0  0  0  0  0  0  0  0
    0.7639    0.9202    1.6538 C   0  0  0  0  0  0  0  0  0  0  0  0
    1.7481    0.2414    1.0314 C   0  0  0  0  0  0  0  0  0  0  0  0
    1.4974   -0.4964   -0.1596 C   0  0  0  0  0  0  0  0  0  0  0  0
    2.5010   -1.2075   -0.8426 C   0  0  0  0  0  0  0  0  0  0  0  0
    2.1842   -1.8796   -1.9976 C   0  0  0  0  0  0  0  0  0  0  0  0
    0.8543   -1.8460   -2.4599 C   0  0  0  0  0  0  0  0  0  0  0  0
   -0.1296   -1.1928   -1.8309 N   0  0  0  0  0  0  0  0  0  0  0  0
    0.1767   -0.5306   -0.7197 C   0  0  0  0  0  0  0  0  0  0  0  0
   -3.7032    2.0865    1.7072 H   0  0  0  0  0  0  0  0  0  0  0  0
   -4.0736    0.7452   -0.3510 H   0  0  0  0  0  0  0  0  0  0  0  0
   -1.3995    2.1756    2.6730 H   0  0  0  0  0  0  0  0  0  0  0  0
    0.9650    1.4830    2.5593 H   0  0  0  0  0  0  0  0  0  0  0  0
    2.7595    0.2497    1.4208 H   0  0  0  0  0  0  0  0  0  0  0  0
    3.4950   -1.2091   -0.4449 H   0  0  0  0  0  0  0  0  0  0  0  0
    2.9325   -2.4302   -2.5440 H   0  0  0  0  0  0  0  0  0  0  0  0
    0.5863   -2.3663   -3.3637 H   0  0  0  0  0  0  0  0  0  0  0  0
  1  2  2  0
  2  3  1  0
  3  4  2  0
  4  5  1  0
  5  6  2  0
  5  7  1  0
  7  8  2  0
  8  9  1  0
  9 10  2  0
 10 11  1  0
 11 12  2  0
 12 13  1  0
 13 14  2  0
  6  1  1  0
 14  9  1  0
 14  4  1  0
  1 15  1  0
  2 16  1  0
  6 17  1  0
  7 18  1  0
  8 19  1  0
 10 20  1  0
 11 21  1  0
 12 22  1  0
M  END
$$$$
