
     RDKit          3D

 24 26  0  0  0  0  0  0  0  0999 V2000
    1.3026   -3.4952   -0.4451 O   0  0  0  0  0  0  0  0  0  0  0  0
    0.3799   -3.0998    0.2247 N   0  0  0  0  0  0  0  0  0  0  0  0
   -0.3530   -3.7926    0.9065 O   0  0  0  0  0  0  0  0  0  0  0  0
    0.0632   -1.6653    0.1451 C   0  0  0  0  0  0  0  0  0  0  0  0
   -1.2339   -1.3226    0.0321 C   0  0  0  0  0  0  0  0  0  0  0  0
   -1.5990    0.0312   -0.1528 C   0  0  0  0  0  0  0  0  0  0  0  0
   -2.9365    0.4386   -0.3496 C   0  0  0  0  0  0  0  0  0  0  0  0
   -3.2105    1.7704   -0.5562 C   0  0  0  0  0  0  0  0  0  0  0  0
   -2.1398    2.6867   -0.5500 C   0  0  0  0  0  0  0  0  0  0  0  0
   -0.8570    2.3338   -0.3543 N   0  0  0  0  0  0  0  0  0  0  0  0
   -0.5888    1.0500   -0.1586 C   0  0  0  0  0  0  0  0  0  0  0  0
    0.8035    0.6720    0.0602 C   0  0  0  0  0  0  0  0  0  0  0  0
    1.7026    1.6396    0.1148 N   0  0  0  0  0  0  0  0  0  0  0  0
    2.9851    1.2937    0.3068 C   0  0  0  0  0  0  0  0  0  0  0  0
    3.4150   -0.0347    0.4479 C   0  0  0  0  0  0  0  0  0  0  0  0
    2.4794   -1.0399    0.3883 C   0  0  0  0  0  0  0  0  0  0  0  0
    1.1352   -0.7121    0.1917 C   0  0  0  0  0  0  0  0  0  0  0  0
   -2.0139   -2.0736    0.0666 H   0  0  0  0  0  0  0  0  0  0  0  0
   -3.7090   -0.3036   -0.3355 H   0  0  0  0  0  0  0  0  0  0  0  0
   -4.2166    2.1147   -0.7169 H   0  0  0  0  0  0  0  0  0  0  0  0
   -2.3284    3.7338   -0.7171 H   0  0  0  0  0  0  0  0  0  0  0  0
    3.6996    2.1005    0.3563 H   0  0  0  0  0  0  0  0  0  0  0  0
    4.4579   -0.2542    0.6005 H   0  0  0  0  0  0  0  0  0  0  0  0
    2.7625   -2.0713    0.4946 H   0  0  0  0  0  0  0  0  0  0  0  0
  1  2  2  0
  2  3  1  0
  2  4  1  0
  4  5  2  0
  5  6  1  0
  6  7  2  0
  7  8  1  0
  8  9  2  0
  9 10  1  0
 10 11  2  0
 11 12  1  0
 12 13  2  0
 13 14  1  0
 14 15  2  0
 15 16  1  0
 16 17  2  0
 17  4  1  0
 11  6  1  0
 17 12  1  0
  5 18  1  0
  7 19  1  0
  8 20  1  0
  9 21  1  0
 14 22  1  0
 15 23  1  0
 16 24  1  0
M  CHG  2   2   1   3  -1
M  END
$$$$

     RDKit          3D

 24 26  0  0  0  0  0  0  0  0999 V2000
    1.5347   -1.5337    3.0833 O   0  0  0  0  0  0  0  0  0  0  0  0
    0.3948   -1.1792    2.8774 N   0  0  0  0  0  0  0  0  0  0  0  0
   -0.5092   -1.2146    3.6922 O   0  0  0  0  0  0  0  0  0  0  0  0
    0.1013   -0.5660    1.5722 C   0  0  0  0  0  0  0  0  0  0  0  0
   -0.7598    0.4693    1.5633 C   0  0  0  0  0  0  0  0  0  0  0  0
   -1.0166    1.1785    0.3696 C   0  0  0  0  0  0  0  0  0  0  0  0
   -1.8767    2.2968    0.3289 C   0  0  0  0  0  0  0  0  0  0  0  0
   -2.0884    2.9353   -0.8691 C   0  0  0  0  0  0  0  0  0  0  0  0
   -1.4391    2.4433   -2.0193 C   0  0  0  0  0  0  0  0  0  0  0  0
   -0.6102    1.3845   -2.0138 N   0  0  0  0  0  0  0  0  0  0  0  0
   -0.4009    0.7674   -0.8583 C   0  0  0  0  0  0  0  0  0  0  0  0
    0.4979   -0.3822   -0.8470 C   0  0  0  0  0  0  0  0  0  0  0  0
    1.0493   -0.7475   -1.9914 N   0  0  0  0  0  0  0  0  0  0  0  0
    1.8457   -1.8277   -1.9941 C   0  0  0  0  0  0  0  0  0  0  0  0
    2.1274   -2.5830   -0.8437 C   0  0  0  0  0  0  0  0  0  0  0  0
    1.5609   -2.1964    0.3478 C   0  0  0  0  0  0  0  0  0  0  0  0
    0.7416   -1.0655    0.3871 C   0  0  0  0  0  0  0  0  0  0  0  0
   -1.2584    0.7857    2.4708 H   0  0  0  0  0  0  0  0  0  0  0  0
   -2.3426    2.6230    1.2356 H   0  0  0  0  0  0  0  0  0  0  0  0
   -2.7301    3.7949   -0.9339 H   0  0  0  0  0  0  0  0  0  0  0  0
   -1.6066    2.9165   -2.9716 H   0  0  0  0  0  0  0  0  0  0  0  0
    2.2765   -2.1056   -2.9418 H   0  0  0  0  0  0  0  0  0  0  0  0
    2.7657   -3.4477   -0.9006 H   0  0  0  0  0  0  0  0  0  0  0  0
    1.7427   -2.7462    1.2562 H   0  0  0  0  0  0  0  0  0  0  0  0
  1  2  2  0
  2  3  1  0
  2  4  1  0
  4  5  2  0
  5  6  1  0
  6  7  2  0
  7  8  1  0
  8  9  2  0
  9 10  1  0
 10 11  2  0
 11 12  1  0
 12 13  2  0
 13 14  1  0
 14 15  2  0
 15 16  1  0
 16 17  2  0
 17  4  1  0
 11  6  1  0
 17 12  1  0
  5 18  1  0
  7 19  1  0
  8 20  1  0
  9 21  1  0
 14 22  1  0
 15 23  1  0
 16 24  1  0
M  CHG  2   2   1   3  -1
M  END
$$$$

     RDKit          3D

 24 26  0  0  0  0  0  0  0  0999 V2000
    3.3417   -1.4769   -1.3688 O   0  0  0  0  0  0  0  0  0  0  0  0
    2.3357   -0.9768   -1.8428 N   0  0  0  0  0  0  0  0  0  0  0  0
    2.1102   -0.8434   -3.0170 O   0  0  0  0  0  0  0  0  0  0  0  0
    1.2854   -0.5949   -0.8835 C   0  0  0  0  0  0  0  0  0  0  0  0
    1.1142   -1.4027    0.1833 C   0  0  0  0  0  0  0  0  0  0  0  0
    0.0663   -1.1653    1.0992 C   0  0  0  0  0  0  0  0  0  0  0  0
   -0.1920   -2.0224    2.1930 C   0  0  0  0  0  0  0  0  0  0  0  0
   -1.2348   -1.7310    3.0392 C   0  0  0  0  0  0  0  0  0  0  0  0
   -2.0034   -0.5772    2.7870 C   0  0  0  0  0  0  0  0  0  0  0  0
   -1.7798    0.2623    1.7603 N   0  0  0  0  0  0  0  0  0  0  0  0
   -0.7853   -0.0226    0.9315 C   0  0  0  0  0  0  0  0  0  0  0  0
   -0.5520    0.8768   -0.1963 C   0  0  0  0  0  0  0  0  0  0  0  0
   -1.3318    1.9364   -0.3177 N   0  0  0  0  0  0  0  0  0  0  0  0
   -1.1172    2.7701   -1.3463 C   0  0  0  0  0  0  0  0  0  0  0  0
   -0.1123    2.5698   -2.3034 C   0  0  0  0  0  0  0  0  0  0  0  0
    0.7001    1.4686   -2.1790 C   0  0  0  0  0  0  0  0  0  0  0  0
    0.4975    0.5801   -1.1219 C   0  0  0  0  0  0  0  0  0  0  0  0
    1.7723   -2.2502    0.3453 H   0  0  0  0  0  0  0  0  0  0  0  0
    0.4324   -2.8800    2.3341 H   0  0  0  0  0  0  0  0  0  0  0  0
   -1.4674   -2.3647    3.8757 H   0  0  0  0  0  0  0  0  0  0  0  0
   -2.8253   -0.3290    3.4369 H   0  0  0  0  0  0  0  0  0  0  0  0
   -1.7616    3.6326   -1.4087 H   0  0  0  0  0  0  0  0  0  0  0  0
    0.0127    3.2604   -3.1191 H   0  0  0  0  0  0  0  0  0  0  0  0
    1.4941    1.2802   -2.8810 H   0  0  0  0  0  0  0  0  0  0  0  0
  1  2  2  0
  2  3  1  0
  2  4  1  0
  4  5  2  0
  5  6  1  0
  6  7  2  0
  7  8  1  0
  8  9  2  0
  9 10  1  0
 10 11  2  0
 11 12  1  0
 12 13  2  0
 13 14  1  0
 14 15  2  0
 15 16  1  0
 16 17  2  0
 17  4  1  0
 11  6  1  0
 17 12  1  0
  5 18  1  0
  7 19  1  0
  8 20  1  0
  9 21  1  0
 14 22  1  0
 15 23  1  0
 16 24  1  0
M  CHG  2   2   1   3  -1
M  END
$$$$

     RDKit          3D

 24 26  0  0  0  0  0  0  0  0999 V2000
   -2.5706    1.9571    2.0151 O   0  0  0  0  0  0  0  0  0  0  0  0
   -1.5882    2.3126    1.4139 N   0  0  0  0  0  0  0  0  0  0  0  0
   -1.2195    3.4686    1.3376 O   0  0  0  0  0  0  0  0  0  0  0  0
   -0.7564    1.2988    0.7535 C   0  0  0  0  0  0  0  0  0  0  0  0
    0.5351    1.6313    0.5452 C   0  0  0  0  0  0  0  0  0  0  0  0
    1.4232    0.7252   -0.0684 C   0  0  0  0  0  0  0  0  0  0  0  0
    2.7846    1.0324   -0.2804 C   0  0  0  0  0  0  0  0  0  0  0  0
    3.5920    0.1038   -0.8889 C   0  0  0  0  0  0  0  0  0  0  0  0
    3.0257   -1.1253   -1.2853 C   0  0  0  0  0  0  0  0  0  0  0  0
    1.7334   -1.4490   -1.0969 N   0  0  0  0  0  0  0  0  0  0  0  0
    0.9529   -0.5560   -0.5068 C   0  0  0  0  0  0  0  0  0  0  0  0
   -0.4464   -0.9086   -0.2863 C   0  0  0  0  0  0  0  0  0  0  0  0
   -0.8425   -2.0993   -0.6977 N   0  0  0  0  0  0  0  0  0  0  0  0
   -2.1210   -2.4478   -0.4885 C   0  0  0  0  0  0  0  0  0  0  0  0
   -3.0585   -1.6010    0.1229 C   0  0  0  0  0  0  0  0  0  0  0  0
   -2.6496   -0.3560    0.5397 C   0  0  0  0  0  0  0  0  0  0  0  0
   -1.3173    0.0315    0.3560 C   0  0  0  0  0  0  0  0  0  0  0  0
    0.9160    2.5993    0.8503 H   0  0  0  0  0  0  0  0  0  0  0  0
    3.1539    1.9854    0.0377 H   0  0  0  0  0  0  0  0  0  0  0  0
    4.6344    0.3012   -1.0621 H   0  0  0  0  0  0  0  0  0  0  0  0
    3.6380   -1.8638   -1.7722 H   0  0  0  0  0  0  0  0  0  0  0  0
   -2.4093   -3.4328   -0.8150 H   0  0  0  0  0  0  0  0  0  0  0  0
   -4.0760   -1.9263    0.2584 H   0  0  0  0  0  0  0  0  0  0  0  0
   -3.3339    0.3188    1.0182 H   0  0  0  0  0  0  0  0  0  0  0  0
  1  2  2  0
  2  3  1  0
  2  4  1  0
  4  5  2  0
  5  6  1  0
  6  7  2  0
  7  8  1  0
  8  9  2  0
  9 10  1  0
 10 11  2  0
 11 12  1  0
 12 13  2  0
 13 14  1  0
 14 15  2  0
 15 16  1  0
 16 17  2  0
 17  4  1  0
 11  6  1  0
 17 12  1  0
  5 18  1  0
  7 19  1  0
  8 20  1  0
  9 21  1  0
 14 22  1  0
 15 23  1  0
 16 24  1  0
M  CHG  2   2   1   3  -1
M  END
$$$$

     RDKit          3D

 24 26  0  0  0  0  0  0  0  0999 V2000
   -2.9965    0.0949   -2.2802 O   0  0  0  0  0  0  0  0  0  0  0  0
   -1.8942    0.5624   -2.4294 N   0  0  0  0  0  0  0  0  0  0  0  0
   -1.5141    1.1838   -3.4030 O   0  0  0  0  0  0  0  0  0  0  0  0
   -0.9033    0.2889   -1.3761 C   0  0  0  0  0  0  0  0  0  0  0  0
    0.3103   -0.1335   -1.7742 C   0  0  0  0  0  0  0  0  0  0  0  0
    1.2878   -0.4921   -0.8195 C   0  0  0  0  0  0  0  0  0  0  0  0
    2.5673   -0.9634   -1.1864 C   0  0  0  0  0  0  0  0  0  0  0  0
    3.4710   -1.2862   -0.2015 C   0  0  0  0  0  0  0  0  0  0  0  0
    3.0817   -1.1373    1.1450 C   0  0  0  0  0  0  0  0  0  0  0  0
    1.8698   -0.6995    1.5282 N   0  0  0  0  0  0  0  0  0  0  0  0
    0.9979   -0.3769    0.5805 C   0  0  0  0  0  0  0  0  0  0  0  0
   -0.3080    0.1245    0.9961 C   0  0  0  0  0  0  0  0  0  0  0  0
   -0.5448    0.2274    2.2919 N   0  0  0  0  0  0  0  0  0  0  0  0
   -1.7339    0.7112    2.6813 C   0  0  0  0  0  0  0  0  0  0  0  0
   -2.7346    1.1123    1.7822 C   0  0  0  0  0  0  0  0  0  0  0  0
   -2.4909    0.9975    0.4346 C   0  0  0  0  0  0  0  0  0  0  0  0
   -1.2703    0.4734   -0.0016 C   0  0  0  0  0  0  0  0  0  0  0  0
    0.5570   -0.2042   -2.8269 H   0  0  0  0  0  0  0  0  0  0  0  0
    2.8062   -1.0496   -2.2269 H   0  0  0  0  0  0  0  0  0  0  0  0
    4.4571   -1.6385   -0.4453 H   0  0  0  0  0  0  0  0  0  0  0  0
    3.7738   -1.3883    1.9327 H   0  0  0  0  0  0  0  0  0  0  0  0
   -1.8973    0.7886    3.7441 H   0  0  0  0  0  0  0  0  0  0  0  0
   -3.6709    1.4978    2.1472 H   0  0  0  0  0  0  0  0  0  0  0  0
   -3.2210    1.3070   -0.2928 H   0  0  0  0  0  0  0  0  0  0  0  0
  1  2  2  0
  2  3  1  0
  2  4  1  0
  4  5  2  0
  5  6  1  0
  6  7  2  0
  7  8  1  0
  8  9  2  0
  9 10  1  0
 10 11  2  0
 11 12  1  0
 12 13  2  0
 13 14  1  0
 14 15  2  0
 15 16  1  0
 16 17  2  0
 17  4  1  0
 11  6  1  0
 17 12  1  0
  5 18  1  0
  7 19  1  0
  8 20  1  0
  9 21  1  0
 14 22  1  0
 15 23  1  0
 16 24  1  0
M  CHG  2   2   1   3  -1
M  END
$$$$

     RDKit          3D

 24 26  0  0  0  0  0  0  0  0999 V2000
    1.5479   -1.8225    3.0883 O   0  0  0  0  0  0  0  0  0  0  0  0
    0.5211   -1.2071    2.8492 N   0  0  0  0  0  0  0  0  0  0  0  0
   -0.3429   -0.9631    3.6500 O   0  0  0  0  0  0  0  0  0  0  0  0
    0.3982   -0.6507    1.4914 C   0  0  0  0  0  0  0  0  0  0  0  0
    1.5480   -0.3355    0.8556 C   0  0  0  0  0  0  0  0  0  0  0  0
    1.5238    0.2619   -0.4239 C   0  0  0  0  0  0  0  0  0  0  0  0
    2.7021    0.6337   -1.1095 C   0  0  0  0  0  0  0  0  0  0  0  0
    2.6008    1.1966   -2.3596 C   0  0  0  0  0  0  0  0  0  0  0  0
    1.3174    1.3831   -2.9128 C   0  0  0  0  0  0  0  0  0  0  0  0
    0.1778    1.0506   -2.2819 N   0  0  0  0  0  0  0  0  0  0  0  0
    0.2701    0.5117   -1.0730 C   0  0  0  0  0  0  0  0  0  0  0  0
   -0.9674    0.1388   -0.3898 C   0  0  0  0  0  0  0  0  0  0  0  0
   -2.1103    0.3634   -1.0128 N   0  0  0  0  0  0  0  0  0  0  0  0
   -3.2495    0.0046   -0.4049 C   0  0  0  0  0  0  0  0  0  0  0  0
   -3.2911   -0.5909    0.8636 C   0  0  0  0  0  0  0  0  0  0  0  0
   -2.1037   -0.8171    1.5177 C   0  0  0  0  0  0  0  0  0  0  0  0
   -0.9002   -0.4518    0.9120 C   0  0  0  0  0  0  0  0  0  0  0  0
    2.5076   -0.5211    1.3225 H   0  0  0  0  0  0  0  0  0  0  0  0
    3.6472    0.4597   -0.6364 H   0  0  0  0  0  0  0  0  0  0  0  0
    3.4769    1.4883   -2.9093 H   0  0  0  0  0  0  0  0  0  0  0  0
    1.2125    1.8187   -3.8920 H   0  0  0  0  0  0  0  0  0  0  0  0
   -4.1640    0.1870   -0.9457 H   0  0  0  0  0  0  0  0  0  0  0  0
   -4.2314   -0.8643    1.3110 H   0  0  0  0  0  0  0  0  0  0  0  0
   -2.0911   -1.2740    2.4900 H   0  0  0  0  0  0  0  0  0  0  0  0
  1  2  2  0
  2  3  1  0
  2  4  1  0
  4  5  2  0
  5  6  1  0
  6  7  2  0
  7  8  1  0
  8  9  2  0
  9 10  1  0
 10 11  2  0
 11 12  1  0
 12 13  2  0
 13 14  1  0
 14 15  2  0
 15 16  1  0
 16 17  2  0
 17  4  1  0
 11  6  1  0
 17 12  1  0
  5 18  1  0
  7 19  1  0
  8 20  1  0
  9 21  1  0
 14 22  1  0
 15 23  1  0
 16 24  1  0
M  CHG  2   2   1   3  -1
M  END
$$$$

     RDKit          3D

 24 26  0  0  0  0  0  0  0  0999 V2000
    2.8763    0.0308   -2.4490 O   0  0  0  0  0  0  0  0  0  0  0  0
    2.8327   -0.3018   -1.2781 N   0  0  0  0  0  0  0  0  0  0  0  0
    3.7318   -0.8043   -0.6275 O   0  0  0  0  0  0  0  0  0  0  0  0
    1.5580   -0.0594   -0.5762 C   0  0  0  0  0  0  0  0  0  0  0  0
    1.5376    0.8824    0.3800 C   0  0  0  0  0  0  0  0  0  0  0  0
    0.3264    1.1849    1.0433 C   0  0  0  0  0  0  0  0  0  0  0  0
    0.2351    2.1793    2.0405 C   0  0  0  0  0  0  0  0  0  0  0  0
   -0.9755    2.4085    2.6496 C   0  0  0  0  0  0  0  0  0  0  0  0
   -2.0890    1.6406    2.2505 C   0  0  0  0  0  0  0  0  0  0  0  0
   -2.0394    0.6907    1.2998 N   0  0  0  0  0  0  0  0  0  0  0  0
   -0.8702    0.4602    0.7175 C   0  0  0  0  0  0  0  0  0  0  0  0
   -0.8146   -0.5788   -0.3042 C   0  0  0  0  0  0  0  0  0  0  0  0
   -1.9242   -1.2443   -0.5734 N   0  0  0  0  0  0  0  0  0  0  0  0
   -1.8713   -2.2072   -1.5055 C   0  0  0  0  0  0  0  0  0  0  0  0
   -0.6991   -2.5453   -2.2058 C   0  0  0  0  0  0  0  0  0  0  0  0
    0.4554   -1.8571   -1.9213 C   0  0  0  0  0  0  0  0  0  0  0  0
    0.4247   -0.8423   -0.9613 C   0  0  0  0  0  0  0  0  0  0  0  0
    2.4420    1.4214    0.6504 H   0  0  0  0  0  0  0  0  0  0  0  0
    1.1123    2.7346    2.2991 H   0  0  0  0  0  0  0  0  0  0  0  0
   -1.0806    3.1539    3.4169 H   0  0  0  0  0  0  0  0  0  0  0  0
   -3.0441    1.7993    2.7239 H   0  0  0  0  0  0  0  0  0  0  0  0
   -2.7927   -2.7339   -1.7047 H   0  0  0  0  0  0  0  0  0  0  0  0
   -0.7142   -3.3297   -2.9413 H   0  0  0  0  0  0  0  0  0  0  0  0
    1.3827   -2.0822   -2.4233 H   0  0  0  0  0  0  0  0  0  0  0  0
  1  2  2  0
  2  3  1  0
  2  4  1  0
  4  5  2  0
  5  6  1  0
  6  7  2  0
  7  8  1  0
  8  9  2  0
  9 10  1  0
 10 11  2  0
 11 12  1  0
 12 13  2  0
 13 14  1  0
 14 15  2  0
 15 16  1  0
 16 17  2  0
 17  4  1  0
 11  6  1  0
 17 12  1  0
  5 18  1  0
  7 19  1  0
  8 20  1  0
  9 21  1  0
 14 22  1  0
 15 23  1  0
 16 24  1  0
M  CHG  2   2   1   3  -1
M  END
$$$$

     RDKit          3D

 24 26  0  0  0  0  0  0  0  0999 V2000
    2.1413   -2.3679    2.0546 O   0  0  0  0  0  0  0  0  0  0  0  0
    1.0220   -1.9554    2.2446 N   0  0  0  0  0  0  0  0  0  0  0  0
    0.3057   -2.2943    3.1697 O   0  0  0  0  0  0  0  0  0  0  0  0
    0.4356   -1.0555    1.2413 C   0  0  0  0  0  0  0  0  0  0  0  0
   -0.9076   -1.1051    1.1076 C   0  0  0  0  0  0  0  0  0  0  0  0
   -1.5591   -0.3449    0.1107 C   0  0  0  0  0  0  0  0  0  0  0  0
   -2.9567   -0.3865   -0.0900 C   0  0  0  0  0  0  0  0  0  0  0  0
   -3.5155    0.3798   -1.0863 C   0  0  0  0  0  0  0  0  0  0  0  0
   -2.6681    1.1867   -1.8728 C   0  0  0  0  0  0  0  0  0  0  0  0
   -1.3386    1.2542   -1.7061 N   0  0  0  0  0  0  0  0  0  0  0  0
   -0.7976    0.5160   -0.7448 C   0  0  0  0  0  0  0  0  0  0  0  0
    0.6437    0.6073   -0.5562 C   0  0  0  0  0  0  0  0  0  0  0  0
    1.3051    1.4323   -1.3486 N   0  0  0  0  0  0  0  0  0  0  0  0
    2.6303    1.5378   -1.1829 C   0  0  0  0  0  0  0  0  0  0  0  0
    3.3430    0.8244   -0.2081 C   0  0  0  0  0  0  0  0  0  0  0  0
    2.6522   -0.0349    0.6147 C   0  0  0  0  0  0  0  0  0  0  0  0
    1.2724   -0.1864    0.4547 C   0  0  0  0  0  0  0  0  0  0  0  0
   -1.5073   -1.7343    1.7548 H   0  0  0  0  0  0  0  0  0  0  0  0
   -3.5498   -1.0237    0.5349 H   0  0  0  0  0  0  0  0  0  0  0  0
   -4.5755    0.3736   -1.2641 H   0  0  0  0  0  0  0  0  0  0  0  0
   -3.0834    1.7897   -2.6629 H   0  0  0  0  0  0  0  0  0  0  0  0
    3.1420    2.2211   -1.8414 H   0  0  0  0  0  0  0  0  0  0  0  0
    4.4074    0.9493   -0.1117 H   0  0  0  0  0  0  0  0  0  0  0  0
    3.1585   -0.5833    1.3885 H   0  0  0  0  0  0  0  0  0  0  0  0
  1  2  2  0
  2  3  1  0
  2  4  1  0
  4  5  2  0
  5  6  1  0
  6  7  2  0
  7  8  1  0
  8  9  2  0
  9 10  1  0
 10 11  2  0
 11 12  1  0
 12 13  2  0
 13 14  1  0
 14 15  2  0
 15 16  1  0
 16 17  2  0
 17  4  1  0
 11  6  1  0
 17 12  1  0
  5 18  1  0
  7 19  1  0
  8 20  1  0
  9 21  1  0
 14 22  1  0
 15 23  1  0
 16 24  1  0
M  CHG  2   2   1   3  -1
M  END
$$$$

     RDKit          3D

 24 26  0  0  0  0  0  0  0  0999 V2000
    2.7542   -1.1747   -2.4763 O   0  0  0  0  0  0  0  0  0  0  0  0
    1.5393   -1.0912   -2.4893 N   0  0  0  0  0  0  0  0  0  0  0  0
    0.8041   -1.4013   -3.3994 O   0  0  0  0  0  0  0  0  0  0  0  0
    0.9111   -0.4738   -1.3058 C   0  0  0  0  0  0  0  0  0  0  0  0
    1.3178    0.7620   -0.9696 C   0  0  0  0  0  0  0  0  0  0  0  0
    0.6932    1.4449    0.0969 C   0  0  0  0  0  0  0  0  0  0  0  0
    1.0623    2.7534    0.4809 C   0  0  0  0  0  0  0  0  0  0  0  0
    0.4170    3.3505    1.5384 C   0  0  0  0  0  0  0  0  0  0  0  0
   -0.5976    2.6318    2.2024 C   0  0  0  0  0  0  0  0  0  0  0  0
   -0.9751    1.3861    1.8600 N   0  0  0  0  0  0  0  0  0  0  0  0
   -0.3475    0.8029    0.8473 C   0  0  0  0  0  0  0  0  0  0  0  0
   -0.7475   -0.5544    0.4895 C   0  0  0  0  0  0  0  0  0  0  0  0
   -1.6973   -1.1323    1.2026 N   0  0  0  0  0  0  0  0  0  0  0  0
   -2.0456   -2.3911    0.8850 C   0  0  0  0  0  0  0  0  0  0  0  0
   -1.4522   -3.1213   -0.1596 C   0  0  0  0  0  0  0  0  0  0  0  0
   -0.4735   -2.5134   -0.9071 C   0  0  0  0  0  0  0  0  0  0  0  0
   -0.0999   -1.2022   -0.6069 C   0  0  0  0  0  0  0  0  0  0  0  0
    2.1275    1.2444   -1.5104 H   0  0  0  0  0  0  0  0  0  0  0  0
    1.8356    3.2543   -0.0638 H   0  0  0  0  0  0  0  0  0  0  0  0
    0.6705    4.3472    1.8550 H   0  0  0  0  0  0  0  0  0  0  0  0
   -1.1203    3.0789    3.0320 H   0  0  0  0  0  0  0  0  0  0  0  0
   -2.8289   -2.8390    1.4781 H   0  0  0  0  0  0  0  0  0  0  0  0
   -1.7609   -4.1332   -0.3618 H   0  0  0  0  0  0  0  0  0  0  0  0
    0.0135   -3.0286   -1.7182 H   0  0  0  0  0  0  0  0  0  0  0  0
  1  2  2  0
  2  3  1  0
  2  4  1  0
  4  5  2  0
  5  6  1  0
  6  7  2  0
  7  8  1  0
  8  9  2  0
  9 10  1  0
 10 11  2  0
 11 12  1  0
 12 13  2  0
 13 14  1  0
 14 15  2  0
 15 16  1  0
 16 17  2  0
 17  4  1  0
 11  6  1  0
 17 12  1  0
  5 18  1  0
  7 19  1  0
  8 20  1  0
  9 21  1  0
 14 22  1  0
 15 23  1  0
 16 24  1  0
M  CHG  2   2   1   3  -1
M  END
$$$$

     RDKit          3D

 24 26  0  0  0  0  0  0  0  0999 V2000
    1.5958   -0.2668    3.3914 O   0  0  0  0  0  0  0  0  0  0  0  0
    0.4294   -0.3343    3.0844 N   0  0  0  0  0  0  0  0  0  0  0  0
   -0.5004   -0.5335    3.8459 O   0  0  0  0  0  0  0  0  0  0  0  0
    0.1144   -0.2563    1.6490 C   0  0  0  0  0  0  0  0  0  0  0  0
   -0.7508   -1.1639    1.1600 C   0  0  0  0  0  0  0  0  0  0  0  0
   -1.0250   -1.2154   -0.2247 C   0  0  0  0  0  0  0  0  0  0  0  0
   -1.9076   -2.1612   -0.7904 C   0  0  0  0  0  0  0  0  0  0  0  0
   -2.1223   -2.1468   -2.1481 C   0  0  0  0  0  0  0  0  0  0  0  0
   -1.4472   -1.1856   -2.9284 C   0  0  0  0  0  0  0  0  0  0  0  0
   -0.6026   -0.2685   -2.4217 N   0  0  0  0  0  0  0  0  0  0  0  0
   -0.3970   -0.2789   -1.1115 C   0  0  0  0  0  0  0  0  0  0  0  0
    0.5036    0.7275   -0.5608 C   0  0  0  0  0  0  0  0  0  0  0  0
    1.0580    1.5809   -1.4036 N   0  0  0  0  0  0  0  0  0  0  0  0
    1.8512    2.5383   -0.8974 C   0  0  0  0  0  0  0  0  0  0  0  0
    2.1268    2.6709    0.4743 C   0  0  0  0  0  0  0  0  0  0  0  0
    1.5618    1.7712    1.3469 C   0  0  0  0  0  0  0  0  0  0  0  0
    0.7483    0.7505    0.8474 C   0  0  0  0  0  0  0  0  0  0  0  0
   -1.2410   -1.8748    1.8141 H   0  0  0  0  0  0  0  0  0  0  0  0
   -2.3926   -2.8667   -0.1462 H   0  0  0  0  0  0  0  0  0  0  0  0
   -2.7973   -2.8428   -2.6127 H   0  0  0  0  0  0  0  0  0  0  0  0
   -1.5957   -1.1642   -3.9955 H   0  0  0  0  0  0  0  0  0  0  0  0
    2.2866    3.2246   -1.6065 H   0  0  0  0  0  0  0  0  0  0  0  0
    2.7714    3.4570    0.8266 H   0  0  0  0  0  0  0  0  0  0  0  0
    1.7323    1.8390    2.4076 H   0  0  0  0  0  0  0  0  0  0  0  0
  1  2  2  0
  2  3  1  0
  2  4  1  0
  4  5  2  0
  5  6  1  0
  6  7  2  0
  7  8  1  0
  8  9  2  0
  9 10  1  0
 10 11  2  0
 11 12  1  0
 12 13  2  0
 13 14  1  0
 14 15  2  0
 15 16  1  0
 16 17  2  0
 17  4  1  0
 11  6  1  0
 17 12  1  0
  5 18  1  0
  7 19  1  0
  8 20  1  0
  9 21  1  0
 14 22  1  0
 15 23  1  0
 16 24  1  0
M  CHG  2   2   1   3  -1
M  END
$$$$

     RDKit          3D

 24 26  0  0  0  0  0  0  0  0999 V2000
    1.6245    2.8047    2.1839 O   0  0  0  0  0  0  0  0  0  0  0  0
    1.6660    1.5877    2.1339 N   0  0  0  0  0  0  0  0  0  0  0  0
    2.3667    0.8860    2.8195 O   0  0  0  0  0  0  0  0  0  0  0  0
    0.8837    0.9514    1.0600 C   0  0  0  0  0  0  0  0  0  0  0  0
    0.8146    1.6070   -0.1180 C   0  0  0  0  0  0  0  0  0  0  0  0
    0.1594    1.0223   -1.2250 C   0  0  0  0  0  0  0  0  0  0  0  0
    0.0789    1.6577   -2.4838 C   0  0  0  0  0  0  0  0  0  0  0  0
   -0.5669    1.0170   -3.5155 C   0  0  0  0  0  0  0  0  0  0  0  0
   -1.1274   -0.2549   -3.2788 C   0  0  0  0  0  0  0  0  0  0  0  0
   -1.0835   -0.8787   -2.0900 N   0  0  0  0  0  0  0  0  0  0  0  0
   -0.4672   -0.2606   -1.0901 C   0  0  0  0  0  0  0  0  0  0  0  0
   -0.4332   -0.9324    0.2038 C   0  0  0  0  0  0  0  0  0  0  0  0
   -1.0562   -2.0939    0.3076 N   0  0  0  0  0  0  0  0  0  0  0  0
   -1.0605   -2.7029    1.5029 C   0  0  0  0  0  0  0  0  0  0  0  0
   -0.4390   -2.1680    2.6435 C   0  0  0  0  0  0  0  0  0  0  0  0
    0.2187   -0.9657    2.5326 C   0  0  0  0  0  0  0  0  0  0  0  0
    0.2481   -0.3122    1.2991 C   0  0  0  0  0  0  0  0  0  0  0  0
    1.2687    2.5834   -0.2368 H   0  0  0  0  0  0  0  0  0  0  0  0
    0.5280    2.6218   -2.6047 H   0  0  0  0  0  0  0  0  0  0  0  0
   -0.6442    1.4652   -4.4897 H   0  0  0  0  0  0  0  0  0  0  0  0
   -1.6283   -0.7776   -4.0773 H   0  0  0  0  0  0  0  0  0  0  0  0
   -1.5744   -3.6490    1.5592 H   0  0  0  0  0  0  0  0  0  0  0  0
   -0.4836   -2.6900    3.5842 H   0  0  0  0  0  0  0  0  0  0  0  0
    0.7072   -0.5181    3.3794 H   0  0  0  0  0  0  0  0  0  0  0  0
  1  2  2  0
  2  3  1  0
  2  4  1  0
  4  5  2  0
  5  6  1  0
  6  7  2  0
  7  8  1  0
  8  9  2  0
  9 10  1  0
 10 11  2  0
 11 12  1  0
 12 13  2  0
 13 14  1  0
 14 15  2  0
 15 16  1  0
 16 17  2  0
 17  4  1  0
 11  6  1  0
 17 12  1  0
  5 18  1  0
  7 19  1  0
  8 20  1  0
  9 21  1  0
 14 22  1  0
 15 23  1  0
 16 24  1  0
M  CHG  2   2   1   3  -1
M  END
$$$$

     RDKit          3D

 24 26  0  0  0  0  0  0  0  0999 V2000
   -2.8521   -2.4375    0.4877 O   0  0  0  0  0  0  0  0  0  0  0  0
   -1.7303   -2.6200    0.0805 N   0  0  0  0  0  0  0  0  0  0  0  0
   -1.3005   -3.6863   -0.3175 O   0  0  0  0  0  0  0  0  0  0  0  0
   -0.8373   -1.4571   -0.0250 C   0  0  0  0  0  0  0  0  0  0  0  0
    0.0952   -1.4991   -0.9982 C   0  0  0  0  0  0  0  0  0  0  0  0
    0.9273   -0.3844   -1.2479 C   0  0  0  0  0  0  0  0  0  0  0  0
    1.8898   -0.3674   -2.2821 C   0  0  0  0  0  0  0  0  0  0  0  0
    2.6562    0.7597   -2.4679 C   0  0  0  0  0  0  0  0  0  0  0  0
    2.4504    1.8646   -1.6156 C   0  0  0  0  0  0  0  0  0  0  0  0
    1.5499    1.8768   -0.6172 N   0  0  0  0  0  0  0  0  0  0  0  0
    0.8156    0.7886   -0.4318 C   0  0  0  0  0  0  0  0  0  0  0  0
   -0.1518    0.7994    0.6602 C   0  0  0  0  0  0  0  0  0  0  0  0
   -0.2081    1.8852    1.4120 N   0  0  0  0  0  0  0  0  0  0  0  0
   -1.0654    1.8899    2.4444 C   0  0  0  0  0  0  0  0  0  0  0  0
   -1.9083    0.8119    2.7546 C   0  0  0  0  0  0  0  0  0  0  0  0
   -1.8593   -0.3098    1.9638 C   0  0  0  0  0  0  0  0  0  0  0  0
   -0.9834   -0.3459    0.8753 C   0  0  0  0  0  0  0  0  0  0  0  0
    0.2188   -2.3860   -1.6053 H   0  0  0  0  0  0  0  0  0  0  0  0
    1.9988   -1.2359   -2.8996 H   0  0  0  0  0  0  0  0  0  0  0  0
    3.3958    0.8081   -3.2473 H   0  0  0  0  0  0  0  0  0  0  0  0
    3.0352    2.7588   -1.7469 H   0  0  0  0  0  0  0  0  0  0  0  0
   -1.0801    2.7807    3.0521 H   0  0  0  0  0  0  0  0  0  0  0  0
   -2.5757    0.8681    3.5987 H   0  0  0  0  0  0  0  0  0  0  0  0
   -2.4807   -1.1624    2.1728 H   0  0  0  0  0  0  0  0  0  0  0  0
  1  2  2  0
  2  3  1  0
  2  4  1  0
  4  5  2  0
  5  6  1  0
  6  7  2  0
  7  8  1  0
  8  9  2  0
  9 10  1  0
 10 11  2  0
 11 12  1  0
 12 13  2  0
 13 14  1  0
 14 15  2  0
 15 16  1  0
 16 17  2  0
 17  4  1  0
 11  6  1  0
 17 12  1  0
  5 18  1  0
  7 19  1  0
  8 20  1  0
  9 21  1  0
 14 22  1  0
 15 23  1  0
 16 24  1  0
M  CHG  2   2   1   3  -1
M  END
$$$$
