
     RDKit          3D

 22 24  0  0  0  0  0  0  0  0999 V2000
   -1.9922    0.0798   -2.3415 O   0  0  0  0  0  0  0  0  0  0  0  0
   -1.1845    0.0498   -1.3973 C   0  0  0  0  0  0  0  0  0  0  0  0
   -1.0016   -1.0455   -0.4037 C   0  0  0  0  0  0  0  0  0  0  0  0
   -1.6646   -2.2537   -0.2793 C   0  0  0  0  0  0  0  0  0  0  0  0
   -1.3017   -3.1050    0.7459 C   0  0  0  0  0  0  0  0  0  0  0  0
   -0.2733   -2.7596    1.6426 C   0  0  0  0  0  0  0  0  0  0  0  0
    0.3984   -1.5536    1.5381 C   0  0  0  0  0  0  0  0  0  0  0  0
    0.0351   -0.6791    0.5110 C   0  0  0  0  0  0  0  0  0  0  0  0
    0.5335    0.6491    0.1322 C   0  0  0  0  0  0  0  0  0  0  0  0
    1.5189    1.4647    0.6878 C   0  0  0  0  0  0  0  0  0  0  0  0
    1.7624    2.6964    0.1025 C   0  0  0  0  0  0  0  0  0  0  0  0
    1.0441    3.1231   -1.0324 C   0  0  0  0  0  0  0  0  0  0  0  0
    0.0621    2.3271   -1.5907 C   0  0  0  0  0  0  0  0  0  0  0  0
   -0.1968    1.0951   -1.0154 C   0  0  0  0  0  0  0  0  0  0  0  0
   -2.4520   -2.5158   -0.9726 H   0  0  0  0  0  0  0  0  0  0  0  0
   -1.8093   -4.0546    0.8685 H   0  0  0  0  0  0  0  0  0  0  0  0
   -0.0122   -3.4473    2.4250 H   0  0  0  0  0  0  0  0  0  0  0  0
    1.1828   -1.2874    2.2274 H   0  0  0  0  0  0  0  0  0  0  0  0
    2.0698    1.1365    1.5537 H   0  0  0  0  0  0  0  0  0  0  0  0
    2.5145    3.3387    0.5200 H   0  0  0  0  0  0  0  0  0  0  0  0
    1.2660    4.0910   -1.4645 H   0  0  0  0  0  0  0  0  0  0  0  0
   -0.4996    2.6502   -2.4572 H   0  0  0  0  0  0  0  0  0  0  0  0
  1  2  2  0
  2  3  1  0
  3  4  2  0
  4  5  1  0
  5  6  2  0
  6  7  1  0
  7  8  2  0
  8  9  1  0
  9 10  2  0
 10 11  1  0
 11 12  2  0
 12 13  1  0
 13 14  2  0
 14  2  1  0
  8  3  1  0
 14  9  1  0
  4 15  1  0
  5 16  1  0
  6 17  1  0
  7 18  1  0
 10 19  1  0
 11 20  1  0
 12 21  1  0
 13 22  1  0
M  END
$$$$

     RDKit          3D

 22 24  0  0  0  0  0  0  0  0999 V2000
   -3.0344    0.1985   -0.4713 O   0  0  0  0  0  0  0  0  0  0  0  0
   -1.8072    0.1201   -0.2810 C   0  0  0  0  0  0  0  0  0  0  0  0
   -0.8104    1.2247   -0.3335 C   0  0  0  0  0  0  0  0  0  0  0  0
   -0.9860    2.5725   -0.5953 C   0  0  0  0  0  0  0  0  0  0  0  0
    0.1226    3.3974   -0.5918 C   0  0  0  0  0  0  0  0  0  0  0  0
    1.4051    2.8827   -0.3252 C   0  0  0  0  0  0  0  0  0  0  0  0
    1.5990    1.5390   -0.0544 C   0  0  0  0  0  0  0  0  0  0  0  0
    0.4886    0.6933   -0.0557 C   0  0  0  0  0  0  0  0  0  0  0  0
    0.3573   -0.7487    0.1876 C   0  0  0  0  0  0  0  0  0  0  0  0
    1.2971   -1.7324    0.5056 C   0  0  0  0  0  0  0  0  0  0  0  0
    0.8565   -3.0342    0.6791 C   0  0  0  0  0  0  0  0  0  0  0  0
   -0.5023   -3.3739    0.5320 C   0  0  0  0  0  0  0  0  0  0  0  0
   -1.4420   -2.4096    0.2160 C   0  0  0  0  0  0  0  0  0  0  0  0
   -1.0210   -1.1019    0.0483 C   0  0  0  0  0  0  0  0  0  0  0  0
   -1.9729    2.9643   -0.7954 H   0  0  0  0  0  0  0  0  0  0  0  0
    0.0122    4.4556   -0.7936 H   0  0  0  0  0  0  0  0  0  0  0  0
    2.2477    3.5478   -0.3322 H   0  0  0  0  0  0  0  0  0  0  0  0
    2.5807    1.1456    0.1507 H   0  0  0  0  0  0  0  0  0  0  0  0
    2.3391   -1.4755    0.6068 H   0  0  0  0  0  0  0  0  0  0  0  0
    1.5637   -3.8010    0.9359 H   0  0  0  0  0  0  0  0  0  0  0  0
   -0.8058   -4.4051    0.6650 H   0  0  0  0  0  0  0  0  0  0  0  0
   -2.4877   -2.6593    0.1026 H   0  0  0  0  0  0  0  0  0  0  0  0
  1  2  2  0
  2  3  1  0
  3  4  2  0
  4  5  1  0
  5  6  2  0
  6  7  1  0
  7  8  2  0
  8  9  1  0
  9 10  2  0
 10 11  1  0
 11 12  2  0
 12 13  1  0
 13 14  2  0
 14  2  1  0
  8  3  1  0
 14  9  1  0
  4 15  1  0
  5 16  1  0
  6 17  1  0
  7 18  1  0
 10 19  1  0
 11 20  1  0
 12 21  1  0
 13 22  1  0
M  END
$$$$

     RDKit          3D

 22 24  0  0  0  0  0  0  0  0999 V2000
   -0.4798    1.7813    2.4594 O   0  0  0  0  0  0  0  0  0  0  0  0
   -0.2860    1.0643    1.4629 C   0  0  0  0  0  0  0  0  0  0  0  0
   -1.1643    0.9129    0.2709 C   0  0  0  0  0  0  0  0  0  0  0  0
   -2.3733    1.5174   -0.0260 C   0  0  0  0  0  0  0  0  0  0  0  0
   -2.9982    1.1996   -1.2169 C   0  0  0  0  0  0  0  0  0  0  0  0
   -2.4164    0.2862   -2.1175 C   0  0  0  0  0  0  0  0  0  0  0  0
   -1.2087   -0.3306   -1.8362 C   0  0  0  0  0  0  0  0  0  0  0  0
   -0.5676   -0.0207   -0.6344 C   0  0  0  0  0  0  0  0  0  0  0  0
    0.6986   -0.4832   -0.0513 C   0  0  0  0  0  0  0  0  0  0  0  0
    1.6644   -1.3832   -0.5079 C   0  0  0  0  0  0  0  0  0  0  0  0
    2.7758   -1.6196    0.2853 C   0  0  0  0  0  0  0  0  0  0  0  0
    2.9392   -0.9725    1.5251 C   0  0  0  0  0  0  0  0  0  0  0  0
    1.9904   -0.0817    1.9895 C   0  0  0  0  0  0  0  0  0  0  0  0
    0.8732    0.1641    1.2116 C   0  0  0  0  0  0  0  0  0  0  0  0
   -2.8119    2.2213    0.6676 H   0  0  0  0  0  0  0  0  0  0  0  0
   -3.9466    1.6582   -1.4681 H   0  0  0  0  0  0  0  0  0  0  0  0
   -2.9204    0.0671   -3.0402 H   0  0  0  0  0  0  0  0  0  0  0  0
   -0.7641   -1.0318   -2.5240 H   0  0  0  0  0  0  0  0  0  0  0  0
    1.5370   -1.8792   -1.4568 H   0  0  0  0  0  0  0  0  0  0  0  0
    3.5277   -2.3107   -0.0482 H   0  0  0  0  0  0  0  0  0  0  0  0
    3.8209   -1.1828    2.1169 H   0  0  0  0  0  0  0  0  0  0  0  0
    2.1098    0.4236    2.9380 H   0  0  0  0  0  0  0  0  0  0  0  0
  1  2  2  0
  2  3  1  0
  3  4  2  0
  4  5  1  0
  5  6  2  0
  6  7  1  0
  7  8  2  0
  8  9  1  0
  9 10  2  0
 10 11  1  0
 11 12  2  0
 12 13  1  0
 13 14  2  0
 14  2  1  0
  8  3  1  0
 14  9  1  0
  4 15  1  0
  5 16  1  0
  6 17  1  0
  7 18  1  0
 10 19  1  0
 11 20  1  0
 12 21  1  0
 13 22  1  0
M  END
$$$$

     RDKit          3D

 22 24  0  0  0  0  0  0  0  0999 V2000
   -1.7263    2.5318    0.2863 O   0  0  0  0  0  0  0  0  0  0  0  0
   -1.0302    1.5087    0.1686 C   0  0  0  0  0  0  0  0  0  0  0  0
    0.2906    1.3882   -0.5086 C   0  0  0  0  0  0  0  0  0  0  0  0
    1.0575    2.3479   -1.1477 C   0  0  0  0  0  0  0  0  0  0  0  0
    2.2648    1.9684   -1.7033 C   0  0  0  0  0  0  0  0  0  0  0  0
    2.7085    0.6345   -1.6272 C   0  0  0  0  0  0  0  0  0  0  0  0
    1.9570   -0.3371   -0.9879 C   0  0  0  0  0  0  0  0  0  0  0  0
    0.7381    0.0334   -0.4182 C   0  0  0  0  0  0  0  0  0  0  0  0
   -0.2653   -0.7390    0.3238 C   0  0  0  0  0  0  0  0  0  0  0  0
   -0.3181   -2.0815    0.7016 C   0  0  0  0  0  0  0  0  0  0  0  0
   -1.4208   -2.5236    1.4136 C   0  0  0  0  0  0  0  0  0  0  0  0
   -2.4742   -1.6514    1.7475 C   0  0  0  0  0  0  0  0  0  0  0  0
   -2.4337   -0.3187    1.3845 C   0  0  0  0  0  0  0  0  0  0  0  0
   -1.3374    0.1422    0.6767 C   0  0  0  0  0  0  0  0  0  0  0  0
    0.7129    3.3702   -1.2059 H   0  0  0  0  0  0  0  0  0  0  0  0
    2.8865    2.7016   -2.2024 H   0  0  0  0  0  0  0  0  0  0  0  0
    3.6468    0.3680   -2.0767 H   0  0  0  0  0  0  0  0  0  0  0  0
    2.2980   -1.3563   -0.9242 H   0  0  0  0  0  0  0  0  0  0  0  0
    0.4830   -2.7531    0.4383 H   0  0  0  0  0  0  0  0  0  0  0  0
   -1.4759   -3.5531    1.7178 H   0  0  0  0  0  0  0  0  0  0  0  0
   -3.3238   -2.0368    2.2992 H   0  0  0  0  0  0  0  0  0  0  0  0
   -3.2379    0.3557    1.6441 H   0  0  0  0  0  0  0  0  0  0  0  0
  1  2  2  0
  2  3  1  0
  3  4  2  0
  4  5  1  0
  5  6  2  0
  6  7  1  0
  7  8  2  0
  8  9  1  0
  9 10  2  0
 10 11  1  0
 11 12  2  0
 12 13  1  0
 13 14  2  0
 14  2  1  0
  8  3  1  0
 14  9  1  0
  4 15  1  0
  5 16  1  0
  6 17  1  0
  7 18  1  0
 10 19  1  0
 11 20  1  0
 12 21  1  0
 13 22  1  0
M  END
$$$$

     RDKit          3D

 22 24  0  0  0  0  0  0  0  0999 V2000
   -2.4782   -0.4253    1.7754 O   0  0  0  0  0  0  0  0  0  0  0  0
   -1.4734   -0.2546    1.0624 C   0  0  0  0  0  0  0  0  0  0  0  0
   -1.1398   -0.9604   -0.2062 C   0  0  0  0  0  0  0  0  0  0  0  0
   -1.8288   -1.9529   -0.8792 C   0  0  0  0  0  0  0  0  0  0  0  0
   -1.2979   -2.4466   -2.0559 C   0  0  0  0  0  0  0  0  0  0  0  0
   -0.0791   -1.9538   -2.5626 C   0  0  0  0  0  0  0  0  0  0  0  0
    0.6272   -0.9647   -1.8991 C   0  0  0  0  0  0  0  0  0  0  0  0
    0.1012   -0.4567   -0.7090 C   0  0  0  0  0  0  0  0  0  0  0  0
    0.5872    0.5755    0.2150 C   0  0  0  0  0  0  0  0  0  0  0  0
    1.7316    1.3735    0.1972 C   0  0  0  0  0  0  0  0  0  0  0  0
    1.9209    2.2774    1.2283 C   0  0  0  0  0  0  0  0  0  0  0  0
    0.9886    2.3952    2.2768 C   0  0  0  0  0  0  0  0  0  0  0  0
   -0.1463    1.6066    2.3105 C   0  0  0  0  0  0  0  0  0  0  0  0
   -0.3542    0.7014    1.2857 C   0  0  0  0  0  0  0  0  0  0  0  0
   -2.7652   -2.3250   -0.4854 H   0  0  0  0  0  0  0  0  0  0  0  0
   -1.8206   -3.2234   -2.6003 H   0  0  0  0  0  0  0  0  0  0  0  0
    0.3107   -2.3563   -3.4795 H   0  0  0  0  0  0  0  0  0  0  0  0
    1.5566   -0.5826   -2.2889 H   0  0  0  0  0  0  0  0  0  0  0  0
    2.4490    1.2765   -0.6012 H   0  0  0  0  0  0  0  0  0  0  0  0
    2.7972    2.8977    1.2311 H   0  0  0  0  0  0  0  0  0  0  0  0
    1.1740    3.1106    3.0679 H   0  0  0  0  0  0  0  0  0  0  0  0
   -0.8608    1.6881    3.1171 H   0  0  0  0  0  0  0  0  0  0  0  0
  1  2  2  0
  2  3  1  0
  3  4  2  0
  4  5  1  0
  5  6  2  0
  6  7  1  0
  7  8  2  0
  8  9  1  0
  9 10  2  0
 10 11  1  0
 11 12  2  0
 12 13  1  0
 13 14  2  0
 14  2  1  0
  8  3  1  0
 14  9  1  0
  4 15  1  0
  5 16  1  0
  6 17  1  0
  7 18  1  0
 10 19  1  0
 11 20  1  0
 12 21  1  0
 13 22  1  0
M  END
$$$$

     RDKit          3D

 22 24  0  0  0  0  0  0  0  0999 V2000
    0.4469    2.0196   -2.2840 O   0  0  0  0  0  0  0  0  0  0  0  0
    0.2650    1.2030   -1.3634 C   0  0  0  0  0  0  0  0  0  0  0  0
    0.7257   -0.2120   -1.3061 C   0  0  0  0  0  0  0  0  0  0  0  0
    1.4467   -0.9552   -2.2244 C   0  0  0  0  0  0  0  0  0  0  0  0
    1.7443   -2.2713   -1.9218 C   0  0  0  0  0  0  0  0  0  0  0  0
    1.3278   -2.8473   -0.7061 C   0  0  0  0  0  0  0  0  0  0  0  0
    0.6076   -2.1186    0.2242 C   0  0  0  0  0  0  0  0  0  0  0  0
    0.3011   -0.7886   -0.0674 C   0  0  0  0  0  0  0  0  0  0  0  0
   -0.4254    0.2319    0.6956 C   0  0  0  0  0  0  0  0  0  0  0  0
   -1.0347    0.1963    1.9522 C   0  0  0  0  0  0  0  0  0  0  0  0
   -1.6611    1.3414    2.4128 C   0  0  0  0  0  0  0  0  0  0  0  0
   -1.6883    2.5194    1.6413 C   0  0  0  0  0  0  0  0  0  0  0  0
   -1.0885    2.5683    0.3961 C   0  0  0  0  0  0  0  0  0  0  0  0
   -0.4549    1.4339   -0.0793 C   0  0  0  0  0  0  0  0  0  0  0  0
    1.7685   -0.5074   -3.1551 H   0  0  0  0  0  0  0  0  0  0  0  0
    2.3053   -2.8760   -2.6231 H   0  0  0  0  0  0  0  0  0  0  0  0
    1.5766   -3.8715   -0.4975 H   0  0  0  0  0  0  0  0  0  0  0  0
    0.2881   -2.5578    1.1548 H   0  0  0  0  0  0  0  0  0  0  0  0
   -1.0173   -0.7064    2.5402 H   0  0  0  0  0  0  0  0  0  0  0  0
   -2.1355    1.3345    3.3766 H   0  0  0  0  0  0  0  0  0  0  0  0
   -2.1902    3.3938    2.0350 H   0  0  0  0  0  0  0  0  0  0  0  0
   -1.1078    3.4699   -0.2005 H   0  0  0  0  0  0  0  0  0  0  0  0
  1  2  2  0
  2  3  1  0
  3  4  2  0
  4  5  1  0
  5  6  2  0
  6  7  1  0
  7  8  2  0
  8  9  1  0
  9 10  2  0
 10 11  1  0
 11 12  2  0
 12 13  1  0
 13 14  2  0
 14  2  1  0
  8  3  1  0
 14  9  1  0
  4 15  1  0
  5 16  1  0
  6 17  1  0
  7 18  1  0
 10 19  1  0
 11 20  1  0
 12 21  1  0
 13 22  1  0
M  END
$$$$

     RDKit          3D

 22 24  0  0  0  0  0  0  0  0999 V2000
    2.5256    0.3726    1.7124 O   0  0  0  0  0  0  0  0  0  0  0  0
    1.5049    0.2259    1.0191 C   0  0  0  0  0  0  0  0  0  0  0  0
    0.1490   -0.1694    1.4871 C   0  0  0  0  0  0  0  0  0  0  0  0
   -0.2978   -0.4666    2.7625 C   0  0  0  0  0  0  0  0  0  0  0  0
   -1.6207   -0.8257    2.9336 C   0  0  0  0  0  0  0  0  0  0  0  0
   -2.4996   -0.8812    1.8355 C   0  0  0  0  0  0  0  0  0  0  0  0
   -2.0719   -0.5782    0.5536 C   0  0  0  0  0  0  0  0  0  0  0  0
   -0.7367   -0.2192    0.3643 C   0  0  0  0  0  0  0  0  0  0  0  0
    0.0215    0.1447   -0.8399 C   0  0  0  0  0  0  0  0  0  0  0  0
   -0.3529    0.2514   -2.1804 C   0  0  0  0  0  0  0  0  0  0  0  0
    0.6147    0.5968   -3.1100 C   0  0  0  0  0  0  0  0  0  0  0  0
    1.9441    0.8529   -2.7218 C   0  0  0  0  0  0  0  0  0  0  0  0
    2.3260    0.7603   -1.3968 C   0  0  0  0  0  0  0  0  0  0  0  0
    1.3755    0.4077   -0.4544 C   0  0  0  0  0  0  0  0  0  0  0  0
    0.3846   -0.4207    3.5998 H   0  0  0  0  0  0  0  0  0  0  0  0
   -1.9919   -1.0702    3.9211 H   0  0  0  0  0  0  0  0  0  0  0  0
   -3.5205   -1.1671    1.9959 H   0  0  0  0  0  0  0  0  0  0  0  0
   -2.7482   -0.6194   -0.2833 H   0  0  0  0  0  0  0  0  0  0  0  0
   -1.3710    0.0607   -2.4795 H   0  0  0  0  0  0  0  0  0  0  0  0
    0.3470    0.6687   -4.1477 H   0  0  0  0  0  0  0  0  0  0  0  0
    2.6722    1.1243   -3.4772 H   0  0  0  0  0  0  0  0  0  0  0  0
    3.3462    0.9518   -1.0937 H   0  0  0  0  0  0  0  0  0  0  0  0
  1  2  2  0
  2  3  1  0
  3  4  2  0
  4  5  1  0
  5  6  2  0
  6  7  1  0
  7  8  2  0
  8  9  1  0
  9 10  2  0
 10 11  1  0
 11 12  2  0
 12 13  1  0
 13 14  2  0
 14  2  1  0
  8  3  1  0
 14  9  1  0
  4 15  1  0
  5 16  1  0
  6 17  1  0
  7 18  1  0
 10 19  1  0
 11 20  1  0
 12 21  1  0
 13 22  1  0
M  END
$$$$

     RDKit          3D

 22 24  0  0  0  0  0  0  0  0999 V2000
   -2.0167   -2.0014    1.1727 O   0  0  0  0  0  0  0  0  0  0  0  0
   -1.2023   -1.1895    0.7007 C   0  0  0  0  0  0  0  0  0  0  0  0
   -0.2841   -0.2865    1.4488 C   0  0  0  0  0  0  0  0  0  0  0  0
   -0.1172   -0.1184    2.8128 C   0  0  0  0  0  0  0  0  0  0  0  0
    0.8165    0.7987    3.2569 C   0  0  0  0  0  0  0  0  0  0  0  0
    1.5809    1.5518    2.3447 C   0  0  0  0  0  0  0  0  0  0  0  0
    1.4244    1.3997    0.9771 C   0  0  0  0  0  0  0  0  0  0  0  0
    0.4882    0.4734    0.5140 C   0  0  0  0  0  0  0  0  0  0  0  0
    0.0901    0.0765   -0.8428 C   0  0  0  0  0  0  0  0  0  0  0  0
    0.5193    0.4956   -2.1034 C   0  0  0  0  0  0  0  0  0  0  0  0
   -0.0752   -0.0644   -3.2228 C   0  0  0  0  0  0  0  0  0  0  0  0
   -1.0790   -1.0448   -3.1086 C   0  0  0  0  0  0  0  0  0  0  0  0
   -1.5094   -1.4727   -1.8675 C   0  0  0  0  0  0  0  0  0  0  0  0
   -0.9310   -0.9193   -0.7379 C   0  0  0  0  0  0  0  0  0  0  0  0
   -0.7100   -0.6968    3.5076 H   0  0  0  0  0  0  0  0  0  0  0  0
    0.9711    0.9462    4.3186 H   0  0  0  0  0  0  0  0  0  0  0  0
    2.3004    2.2551    2.7195 H   0  0  0  0  0  0  0  0  0  0  0  0
    2.0053    1.9808    0.2794 H   0  0  0  0  0  0  0  0  0  0  0  0
    1.2924    1.2416   -2.1953 H   0  0  0  0  0  0  0  0  0  0  0  0
    0.2329    0.2558   -4.2004 H   0  0  0  0  0  0  0  0  0  0  0  0
   -1.5141   -1.4604   -4.0093 H   0  0  0  0  0  0  0  0  0  0  0  0
   -2.2825   -2.2211   -1.7649 H   0  0  0  0  0  0  0  0  0  0  0  0
  1  2  2  0
  2  3  1  0
  3  4  2  0
  4  5  1  0
  5  6  2  0
  6  7  1  0
  7  8  2  0
  8  9  1  0
  9 10  2  0
 10 11  1  0
 11 12  2  0
 12 13  1  0
 13 14  2  0
 14  2  1  0
  8  3  1  0
 14  9  1  0
  4 15  1  0
  5 16  1  0
  6 17  1  0
  7 18  1  0
 10 19  1  0
 11 20  1  0
 12 21  1  0
 13 22  1  0
M  END
$$$$

     RDKit          3D

 22 24  0  0  0  0  0  0  0  0999 V2000
   -0.9017    1.3043   -2.6320 O   0  0  0  0  0  0  0  0  0  0  0  0
   -0.5453    0.7702   -1.5683 C   0  0  0  0  0  0  0  0  0  0  0  0
    0.2345   -0.4863   -1.4031 C   0  0  0  0  0  0  0  0  0  0  0  0
    0.7277   -1.3558   -2.3592 C   0  0  0  0  0  0  0  0  0  0  0  0
    1.4521   -2.4565   -1.9427 C   0  0  0  0  0  0  0  0  0  0  0  0
    1.6808   -2.6940   -0.5731 C   0  0  0  0  0  0  0  0  0  0  0  0
    1.1818   -1.8417    0.3981 C   0  0  0  0  0  0  0  0  0  0  0  0
    0.4477   -0.7257   -0.0095 C   0  0  0  0  0  0  0  0  0  0  0  0
   -0.1956    0.3552    0.7487 C   0  0  0  0  0  0  0  0  0  0  0  0
   -0.3044    0.6043    2.1190 C   0  0  0  0  0  0  0  0  0  0  0  0
   -0.9916    1.7323    2.5355 C   0  0  0  0  0  0  0  0  0  0  0  0
   -1.5685    2.6202    1.6088 C   0  0  0  0  0  0  0  0  0  0  0  0
   -1.4719    2.3863    0.2504 C   0  0  0  0  0  0  0  0  0  0  0  0
   -0.7934    1.2615   -0.1847 C   0  0  0  0  0  0  0  0  0  0  0  0
    0.5424   -1.1704   -3.4078 H   0  0  0  0  0  0  0  0  0  0  0  0
    1.8541   -3.1468   -2.6722 H   0  0  0  0  0  0  0  0  0  0  0  0
    2.2551   -3.5519   -0.2772 H   0  0  0  0  0  0  0  0  0  0  0  0
    1.3542   -2.0270    1.4455 H   0  0  0  0  0  0  0  0  0  0  0  0
    0.1365   -0.0729    2.8317 H   0  0  0  0  0  0  0  0  0  0  0  0
   -1.0857    1.9364    3.5870 H   0  0  0  0  0  0  0  0  0  0  0  0
   -2.0971    3.4927    1.9722 H   0  0  0  0  0  0  0  0  0  0  0  0
   -1.9119    3.0655   -0.4669 H   0  0  0  0  0  0  0  0  0  0  0  0
  1  2  2  0
  2  3  1  0
  3  4  2  0
  4  5  1  0
  5  6  2  0
  6  7  1  0
  7  8  2  0
  8  9  1  0
  9 10  2  0
 10 11  1  0
 11 12  2  0
 12 13  1  0
 13 14  2  0
 14  2  1  0
  8  3  1  0
 14  9  1  0
  4 15  1  0
  5 16  1  0
  6 17  1  0
  7 18  1  0
 10 19  1  0
 11 20  1  0
 12 21  1  0
 13 22  1  0
M  END
$$$$

     RDKit          3D

 22 24  0  0  0  0  0  0  0  0999 V2000
    1.7146   -2.4011   -0.8717 O   0  0  0  0  0  0  0  0  0  0  0  0
    1.0195   -1.4303   -0.5239 C   0  0  0  0  0  0  0  0  0  0  0  0
    1.4940   -0.0634   -0.1752 C   0  0  0  0  0  0  0  0  0  0  0  0
    2.7776    0.4512   -0.1458 C   0  0  0  0  0  0  0  0  0  0  0  0
    2.9515    1.7734    0.2159 C   0  0  0  0  0  0  0  0  0  0  0  0
    1.8474    2.5816    0.5495 C   0  0  0  0  0  0  0  0  0  0  0  0
    0.5570    2.0802    0.5395 C   0  0  0  0  0  0  0  0  0  0  0  0
    0.3666    0.7477    0.1711 C   0  0  0  0  0  0  0  0  0  0  0  0
   -0.8455   -0.0717    0.0551 C   0  0  0  0  0  0  0  0  0  0  0  0
   -2.1930    0.2181    0.2795 C   0  0  0  0  0  0  0  0  0  0  0  0
   -3.1250   -0.7906    0.1020 C   0  0  0  0  0  0  0  0  0  0  0  0
   -2.7366   -2.0793   -0.3107 C   0  0  0  0  0  0  0  0  0  0  0  0
   -1.4073   -2.3770   -0.5473 C   0  0  0  0  0  0  0  0  0  0  0  0
   -0.4608   -1.3850   -0.3620 C   0  0  0  0  0  0  0  0  0  0  0  0
    3.6209   -0.1760   -0.4010 H   0  0  0  0  0  0  0  0  0  0  0  0
    3.9466    2.2020    0.2429 H   0  0  0  0  0  0  0  0  0  0  0  0
    2.0120    3.6080    0.8193 H   0  0  0  0  0  0  0  0  0  0  0  0
   -0.2862    2.6970    0.8044 H   0  0  0  0  0  0  0  0  0  0  0  0
   -2.4914    1.2054    0.5900 H   0  0  0  0  0  0  0  0  0  0  0  0
   -4.1655   -0.5881    0.2787 H   0  0  0  0  0  0  0  0  0  0  0  0
   -3.4955   -2.8413   -0.4361 H   0  0  0  0  0  0  0  0  0  0  0  0
   -1.1007   -3.3608   -0.8742 H   0  0  0  0  0  0  0  0  0  0  0  0
  1  2  2  0
  2  3  1  0
  3  4  2  0
  4  5  1  0
  5  6  2  0
  6  7  1  0
  7  8  2  0
  8  9  1  0
  9 10  2  0
 10 11  1  0
 11 12  2  0
 12 13  1  0
 13 14  2  0
 14  2  1  0
  8  3  1  0
 14  9  1  0
  4 15  1  0
  5 16  1  0
  6 17  1  0
  7 18  1  0
 10 19  1  0
 11 20  1  0
 12 21  1  0
 13 22  1  0
M  END
$$$$

     RDKit          3D

 22 24  0  0  0  0  0  0  0  0999 V2000
    2.5141   -0.2223   -1.7681 O   0  0  0  0  0  0  0  0  0  0  0  0
    1.4981   -0.1306   -1.0554 C   0  0  0  0  0  0  0  0  0  0  0  0
    1.0636    1.0399   -0.2420 C   0  0  0  0  0  0  0  0  0  0  0  0
    1.6517    2.2820   -0.0806 C   0  0  0  0  0  0  0  0  0  0  0  0
    1.0391    3.2020    0.7508 C   0  0  0  0  0  0  0  0  0  0  0  0
   -0.1586    2.8872    1.4227 C   0  0  0  0  0  0  0  0  0  0  0  0
   -0.7615    1.6502    1.2719 C   0  0  0  0  0  0  0  0  0  0  0  0
   -0.1551    0.7137    0.4325 C   0  0  0  0  0  0  0  0  0  0  0  0
   -0.5347   -0.6544    0.0627 C   0  0  0  0  0  0  0  0  0  0  0  0
   -1.6258   -1.4458    0.4244 C   0  0  0  0  0  0  0  0  0  0  0  0
   -1.7152   -2.7243   -0.0998 C   0  0  0  0  0  0  0  0  0  0  0  0
   -0.7351   -3.2241   -0.9784 C   0  0  0  0  0  0  0  0  0  0  0  0
    0.3521   -2.4525   -1.3421 C   0  0  0  0  0  0  0  0  0  0  0  0
    0.4574   -1.1713   -0.8291 C   0  0  0  0  0  0  0  0  0  0  0  0
    2.5694    2.5196   -0.6008 H   0  0  0  0  0  0  0  0  0  0  0  0
    1.4833    4.1778    0.8975 H   0  0  0  0  0  0  0  0  0  0  0  0
   -0.6123    3.6216    2.0619 H   0  0  0  0  0  0  0  0  0  0  0  0
   -1.6793    1.4074    1.7828 H   0  0  0  0  0  0  0  0  0  0  0  0
   -2.3739   -1.0654    1.1003 H   0  0  0  0  0  0  0  0  0  0  0  0
   -2.5469   -3.3478    0.1686 H   0  0  0  0  0  0  0  0  0  0  0  0
   -0.8410   -4.2288   -1.3686 H   0  0  0  0  0  0  0  0  0  0  0  0
    1.1106   -2.8341   -2.0112 H   0  0  0  0  0  0  0  0  0  0  0  0
  1  2  2  0
  2  3  1  0
  3  4  2  0
  4  5  1  0
  5  6  2  0
  6  7  1  0
  7  8  2  0
  8  9  1  0
  9 10  2  0
 10 11  1  0
 11 12  2  0
 12 13  1  0
 13 14  2  0
 14  2  1  0
  8  3  1  0
 14  9  1  0
  4 15  1  0
  5 16  1  0
  6 17  1  0
  7 18  1  0
 10 19  1  0
 11 20  1  0
 12 21  1  0
 13 22  1  0
M  END
$$$$

     RDKit          3D

 22 24  0  0  0  0  0  0  0  0999 V2000
    1.8533    1.5373    1.9142 O   0  0  0  0  0  0  0  0  0  0  0  0
    1.1029    0.9169    1.1410 C   0  0  0  0  0  0  0  0  0  0  0  0
   -0.3700    1.0762    0.9853 C   0  0  0  0  0  0  0  0  0  0  0  0
   -1.2444    1.9341    1.6279 C   0  0  0  0  0  0  0  0  0  0  0  0
   -2.5833    1.8886    1.2904 C   0  0  0  0  0  0  0  0  0  0  0  0
   -3.0543    0.9800    0.3239 C   0  0  0  0  0  0  0  0  0  0  0  0
   -2.1945    0.1097   -0.3255 C   0  0  0  0  0  0  0  0  0  0  0  0
   -0.8371    0.1543   -0.0050 C   0  0  0  0  0  0  0  0  0  0  0  0
    0.3164   -0.6014   -0.5097 C   0  0  0  0  0  0  0  0  0  0  0  0
    0.4213   -1.6049   -1.4746 C   0  0  0  0  0  0  0  0  0  0  0  0
    1.6725   -2.1324   -1.7480 C   0  0  0  0  0  0  0  0  0  0  0  0
    2.8212   -1.6759   -1.0739 C   0  0  0  0  0  0  0  0  0  0  0  0
    2.7310   -0.6860   -0.1129 C   0  0  0  0  0  0  0  0  0  0  0  0
    1.4873   -0.1474    0.1727 C   0  0  0  0  0  0  0  0  0  0  0  0
   -0.8784    2.6207    2.3792 H   0  0  0  0  0  0  0  0  0  0  0  0
   -3.2854    2.5591    1.7710 H   0  0  0  0  0  0  0  0  0  0  0  0
   -4.1015    0.9643    0.0853 H   0  0  0  0  0  0  0  0  0  0  0  0
   -2.5598   -0.5908   -1.0586 H   0  0  0  0  0  0  0  0  0  0  0  0
   -0.4571   -1.9568   -1.9889 H   0  0  0  0  0  0  0  0  0  0  0  0
    1.7706   -2.9028   -2.4896 H   0  0  0  0  0  0  0  0  0  0  0  0
    3.7826   -2.1123   -1.3153 H   0  0  0  0  0  0  0  0  0  0  0  0
    3.6066   -0.3305    0.4110 H   0  0  0  0  0  0  0  0  0  0  0  0
  1  2  2  0
  2  3  1  0
  3  4  2  0
  4  5  1  0
  5  6  2  0
  6  7  1  0
  7  8  2  0
  8  9  1  0
  9 10  2  0
 10 11  1  0
 11 12  2  0
 12 13  1  0
 13 14  2  0
 14  2  1  0
  8  3  1  0
 14  9  1  0
  4 15  1  0
  5 16  1  0
  6 17  1  0
  7 18  1  0
 10 19  1  0
 11 20  1  0
 12 21  1  0
 13 22  1  0
M  END
$$$$
