
     RDKit          3D

 20 21  0  0  0  0  0  0  0  0999 V2000
   -1.8860   -2.5636   -1.3967 C   0  0  0  0  0  0  0  0  0  0  0  0
   -0.8863   -2.8885   -0.4875 C   0  0  0  0  0  0  0  0  0  0  0  0
   -0.1255   -1.8765    0.0766 C   0  0  0  0  0  0  0  0  0  0  0  0
   -0.3966   -0.5595   -0.2948 C   0  0  0  0  0  0  0  0  0  0  0  0
    0.4071    0.5573    0.2828 C   0  0  0  0  0  0  0  0  0  0  0  0
    0.0150    1.8785    0.0679 C   0  0  0  0  0  0  0  0  0  0  0  0
    0.7871    2.8915    0.6166 C   0  0  0  0  0  0  0  0  0  0  0  0
    1.9188    2.5637    1.3535 C   0  0  0  0  0  0  0  0  0  0  0  0
    2.2242    1.2121    1.5093 C   0  0  0  0  0  0  0  0  0  0  0  0
    1.4909    0.2289    1.0001 N   0  0  0  0  0  0  0  0  0  0  0  0
   -1.3656   -0.2329   -1.1623 N   0  0  0  0  0  0  0  0  0  0  0  0
   -2.0795   -1.2156   -1.6969 C   0  0  0  0  0  0  0  0  0  0  0  0
   -2.4938   -3.3195   -1.8626 H   0  0  0  0  0  0  0  0  0  0  0  0
   -0.7043   -3.9164   -0.2146 H   0  0  0  0  0  0  0  0  0  0  0  0
    0.6565   -2.0935    0.7876 H   0  0  0  0  0  0  0  0  0  0  0  0
   -0.8681    2.0979   -0.5140 H   0  0  0  0  0  0  0  0  0  0  0  0
    0.5069    3.9232    0.4721 H   0  0  0  0  0  0  0  0  0  0  0  0
    2.5480    3.3198    1.7912 H   0  0  0  0  0  0  0  0  0  0  0  0
    3.0982    0.9095    2.0721 H   0  0  0  0  0  0  0  0  0  0  0  0
   -2.8471   -0.9165   -2.4005 H   0  0  0  0  0  0  0  0  0  0  0  0
  1  2  2  0
  2  3  1  0
  3  4  2  0
  4  5  1  0
  5  6  2  0
  6  7  1  0
  7  8  2  0
  8  9  1  0
  9 10  2  0
  4 11  1  0
 11 12  2  0
 12  1  1  0
 10  5  1  0
  1 13  1  0
  2 14  1  0
  3 15  1  0
  6 16  1  0
  7 17  1  0
  8 18  1  0
  9 19  1  0
 12 20  1  0
M  END
$$$$

     RDKit          3D

 20 21  0  0  0  0  0  0  0  0999 V2000
    2.9204   -1.5642   -1.0511 C   0  0  0  0  0  0  0  0  0  0  0  0
    2.6831   -0.2535   -1.4493 C   0  0  0  0  0  0  0  0  0  0  0  0
    1.5266    0.3871   -1.0321 C   0  0  0  0  0  0  0  0  0  0  0  0
    0.6362   -0.3194   -0.2257 C   0  0  0  0  0  0  0  0  0  0  0  0
   -0.6271    0.3304    0.2324 C   0  0  0  0  0  0  0  0  0  0  0  0
   -1.4951   -0.3656    1.0724 C   0  0  0  0  0  0  0  0  0  0  0  0
   -2.6640    0.2626    1.4760 C   0  0  0  0  0  0  0  0  0  0  0  0
   -2.9319    1.5545    1.0393 C   0  0  0  0  0  0  0  0  0  0  0  0
   -2.0015    2.1615    0.1966 C   0  0  0  0  0  0  0  0  0  0  0  0
   -0.8752    1.5774   -0.1970 N   0  0  0  0  0  0  0  0  0  0  0  0
    0.8574   -1.5832    0.1705 N   0  0  0  0  0  0  0  0  0  0  0  0
    1.9669   -2.1822   -0.2429 C   0  0  0  0  0  0  0  0  0  0  0  0
    3.8057   -2.0950   -1.3556 H   0  0  0  0  0  0  0  0  0  0  0  0
    3.3924    0.2660   -2.0745 H   0  0  0  0  0  0  0  0  0  0  0  0
    1.3119    1.4035   -1.3240 H   0  0  0  0  0  0  0  0  0  0  0  0
   -1.2572   -1.3680    1.3927 H   0  0  0  0  0  0  0  0  0  0  0  0
   -3.3557   -0.2495    2.1270 H   0  0  0  0  0  0  0  0  0  0  0  0
   -3.8264    2.0773    1.3335 H   0  0  0  0  0  0  0  0  0  0  0  0
   -2.1743    3.1644   -0.1755 H   0  0  0  0  0  0  0  0  0  0  0  0
    2.1078   -3.2042    0.0873 H   0  0  0  0  0  0  0  0  0  0  0  0
  1  2  2  0
  2  3  1  0
  3  4  2  0
  4  5  1  0
  5  6  2  0
  6  7  1  0
  7  8  2  0
  8  9  1  0
  9 10  2  0
  4 11  1  0
 11 12  2  0
 12  1  1  0
 10  5  1  0
  1 13  1  0
  2 14  1  0
  3 15  1  0
  6 16  1  0
  7 17  1  0
  8 18  1  0
  9 19  1  0
 12 20  1  0
M  END
$$$$

     RDKit          3D

 20 21  0  0  0  0  0  0  0  0999 V2000
   -0.5398   -1.4257    3.1246 C   0  0  0  0  0  0  0  0  0  0  0  0
   -1.4304   -1.7083    2.0952 C   0  0  0  0  0  0  0  0  0  0  0  0
   -1.2305   -1.1403    0.8460 C   0  0  0  0  0  0  0  0  0  0  0  0
   -0.1330   -0.2995    0.6719 C   0  0  0  0  0  0  0  0  0  0  0  0
    0.1175    0.3212   -0.6627 C   0  0  0  0  0  0  0  0  0  0  0  0
    1.2396    1.1268   -0.8519 C   0  0  0  0  0  0  0  0  0  0  0  0
    1.4504    1.6790   -2.1063 C   0  0  0  0  0  0  0  0  0  0  0  0
    0.5452    1.4175   -3.1280 C   0  0  0  0  0  0  0  0  0  0  0  0
   -0.5493    0.6045   -2.8347 C   0  0  0  0  0  0  0  0  0  0  0  0
   -0.7642    0.0649   -1.6413 N   0  0  0  0  0  0  0  0  0  0  0  0
    0.7327   -0.0168    1.6585 N   0  0  0  0  0  0  0  0  0  0  0  0
    0.5247   -0.5685    2.8477 C   0  0  0  0  0  0  0  0  0  0  0  0
   -0.6600   -1.8458    4.1080 H   0  0  0  0  0  0  0  0  0  0  0  0
   -2.2695   -2.3652    2.2613 H   0  0  0  0  0  0  0  0  0  0  0  0
   -1.9034   -1.3347    0.0250 H   0  0  0  0  0  0  0  0  0  0  0  0
    1.9191    1.3128   -0.0348 H   0  0  0  0  0  0  0  0  0  0  0  0
    2.3125    2.3031   -2.2835 H   0  0  0  0  0  0  0  0  0  0  0  0
    0.6776    1.8207   -4.1167 H   0  0  0  0  0  0  0  0  0  0  0  0
   -1.2824    0.3765   -3.5990 H   0  0  0  0  0  0  0  0  0  0  0  0
    1.2430   -0.3219    3.6207 H   0  0  0  0  0  0  0  0  0  0  0  0
  1  2  2  0
  2  3  1  0
  3  4  2  0
  4  5  1  0
  5  6  2  0
  6  7  1  0
  7  8  2  0
  8  9  1  0
  9 10  2  0
  4 11  1  0
 11 12  2  0
 12  1  1  0
 10  5  1  0
  1 13  1  0
  2 14  1  0
  3 15  1  0
  6 16  1  0
  7 17  1  0
  8 18  1  0
  9 19  1  0
 12 20  1  0
M  END
$$$$

     RDKit          3D

 20 21  0  0  0  0  0  0  0  0999 V2000
    1.5525    2.6994    1.5422 C   0  0  0  0  0  0  0  0  0  0  0  0
    0.1634    2.6415    1.5394 C   0  0  0  0  0  0  0  0  0  0  0  0
   -0.4720    1.5688    0.9332 C   0  0  0  0  0  0  0  0  0  0  0  0
    0.3163    0.5842    0.3398 C   0  0  0  0  0  0  0  0  0  0  0  0
   -0.3278   -0.5842   -0.3301 C   0  0  0  0  0  0  0  0  0  0  0  0
    0.4652   -1.5259   -0.9836 C   0  0  0  0  0  0  0  0  0  0  0  0
   -0.1613   -2.5998   -1.5946 C   0  0  0  0  0  0  0  0  0  0  0  0
   -1.5454   -2.7123   -1.5292 C   0  0  0  0  0  0  0  0  0  0  0  0
   -2.2488   -1.7163   -0.8530 C   0  0  0  0  0  0  0  0  0  0  0  0
   -1.6654   -0.6765   -0.2693 N   0  0  0  0  0  0  0  0  0  0  0  0
    1.6581    0.6280    0.3394 N   0  0  0  0  0  0  0  0  0  0  0  0
    2.2496    1.6602    0.9272 C   0  0  0  0  0  0  0  0  0  0  0  0
    2.0819    3.5163    1.9999 H   0  0  0  0  0  0  0  0  0  0  0  0
   -0.4189    3.4220    2.0037 H   0  0  0  0  0  0  0  0  0  0  0  0
   -1.5479    1.4926    0.9106 H   0  0  0  0  0  0  0  0  0  0  0  0
    1.5382   -1.4159   -1.0108 H   0  0  0  0  0  0  0  0  0  0  0  0
    0.4251   -3.3415   -2.1144 H   0  0  0  0  0  0  0  0  0  0  0  0
   -2.0670   -3.5362   -1.9837 H   0  0  0  0  0  0  0  0  0  0  0  0
   -3.3288   -1.7660   -0.7769 H   0  0  0  0  0  0  0  0  0  0  0  0
    3.3330    1.6619    0.9103 H   0  0  0  0  0  0  0  0  0  0  0  0
  1  2  2  0
  2  3  1  0
  3  4  2  0
  4  5  1  0
  5  6  2  0
  6  7  1  0
  7  8  2  0
  8  9  1  0
  9 10  2  0
  4 11  1  0
 11 12  2  0
 12  1  1  0
 10  5  1  0
  1 13  1  0
  2 14  1  0
  3 15  1  0
  6 16  1  0
  7 17  1  0
  8 18  1  0
  9 19  1  0
 12 20  1  0
M  END
$$$$

     RDKit          3D

 20 21  0  0  0  0  0  0  0  0999 V2000
    0.0579   -2.6203    2.2866 C   0  0  0  0  0  0  0  0  0  0  0  0
    0.0757   -1.3147    2.7623 C   0  0  0  0  0  0  0  0  0  0  0  0
    0.0574   -0.2609    1.8613 C   0  0  0  0  0  0  0  0  0  0  0  0
    0.0190   -0.5546    0.4997 C   0  0  0  0  0  0  0  0  0  0  0  0
   -0.0079    0.5560   -0.4992 C   0  0  0  0  0  0  0  0  0  0  0  0
   -0.0905    0.2614   -1.8588 C   0  0  0  0  0  0  0  0  0  0  0  0
   -0.1122    1.3142   -2.7610 C   0  0  0  0  0  0  0  0  0  0  0  0
   -0.0540    2.6194   -2.2877 C   0  0  0  0  0  0  0  0  0  0  0  0
    0.0296    2.8078   -0.9089 C   0  0  0  0  0  0  0  0  0  0  0  0
    0.0485    1.8120   -0.0276 N   0  0  0  0  0  0  0  0  0  0  0  0
    0.0036   -1.8105    0.0279 N   0  0  0  0  0  0  0  0  0  0  0  0
    0.0245   -2.8078    0.9051 C   0  0  0  0  0  0  0  0  0  0  0  0
    0.0714   -3.4647    2.9537 H   0  0  0  0  0  0  0  0  0  0  0  0
    0.0980   -1.1182    3.8225 H   0  0  0  0  0  0  0  0  0  0  0  0
    0.0738    0.7631    2.1981 H   0  0  0  0  0  0  0  0  0  0  0  0
   -0.1329   -0.7639   -2.1924 H   0  0  0  0  0  0  0  0  0  0  0  0
   -0.1806    1.1175   -3.8195 H   0  0  0  0  0  0  0  0  0  0  0  0
   -0.0720    3.4638   -2.9554 H   0  0  0  0  0  0  0  0  0  0  0  0
    0.0813    3.8076   -0.4955 H   0  0  0  0  0  0  0  0  0  0  0  0
    0.0094   -3.8071    0.4889 H   0  0  0  0  0  0  0  0  0  0  0  0
  1  2  2  0
  2  3  1  0
  3  4  2  0
  4  5  1  0
  5  6  2  0
  6  7  1  0
  7  8  2  0
  8  9  1  0
  9 10  2  0
  4 11  1  0
 11 12  2  0
 12  1  1  0
 10  5  1  0
  1 13  1  0
  2 14  1  0
  3 15  1  0
  6 16  1  0
  7 17  1  0
  8 18  1  0
  9 19  1  0
 12 20  1  0
M  END
$$$$

     RDKit          3D

 20 21  0  0  0  0  0  0  0  0999 V2000
    2.4823   -1.2866   -2.0660 C   0  0  0  0  0  0  0  0  0  0  0  0
    2.1387   -1.9881   -0.9166 C   0  0  0  0  0  0  0  0  0  0  0  0
    1.1464   -1.4902   -0.0848 C   0  0  0  0  0  0  0  0  0  0  0  0
    0.5335   -0.2873   -0.4317 C   0  0  0  0  0  0  0  0  0  0  0  0
   -0.5396    0.2806    0.4363 C   0  0  0  0  0  0  0  0  0  0  0  0
   -1.0522    1.5471    0.1601 C   0  0  0  0  0  0  0  0  0  0  0  0
   -2.0502    2.0454    0.9815 C   0  0  0  0  0  0  0  0  0  0  0  0
   -2.5111    1.2716    2.0402 C   0  0  0  0  0  0  0  0  0  0  0  0
   -1.9335    0.0163    2.2309 C   0  0  0  0  0  0  0  0  0  0  0  0
   -0.9736   -0.4747    1.4564 N   0  0  0  0  0  0  0  0  0  0  0  0
    0.8646    0.4024   -1.5338 N   0  0  0  0  0  0  0  0  0  0  0  0
    1.8079   -0.0947   -2.3251 C   0  0  0  0  0  0  0  0  0  0  0  0
    3.2452   -1.6415   -2.7378 H   0  0  0  0  0  0  0  0  0  0  0  0
    2.6346   -2.9144   -0.6727 H   0  0  0  0  0  0  0  0  0  0  0  0
    0.8494   -2.0143    0.8103 H   0  0  0  0  0  0  0  0  0  0  0  0
   -0.6714    2.1199   -0.6710 H   0  0  0  0  0  0  0  0  0  0  0  0
   -2.4647    3.0234    0.7926 H   0  0  0  0  0  0  0  0  0  0  0  0
   -3.2869    1.6206    2.6979 H   0  0  0  0  0  0  0  0  0  0  0  0
   -2.2605   -0.6197    3.0446 H   0  0  0  0  0  0  0  0  0  0  0  0
    2.0409    0.4841   -3.2113 H   0  0  0  0  0  0  0  0  0  0  0  0
  1  2  2  0
  2  3  1  0
  3  4  2  0
  4  5  1  0
  5  6  2  0
  6  7  1  0
  7  8  2  0
  8  9  1  0
  9 10  2  0
  4 11  1  0
 11 12  2  0
 12  1  1  0
 10  5  1  0
  1 13  1  0
  2 14  1  0
  3 15  1  0
  6 16  1  0
  7 17  1  0
  8 18  1  0
  9 19  1  0
 12 20  1  0
M  END
$$$$

     RDKit          3D

 20 21  0  0  0  0  0  0  0  0999 V2000
    0.5011    3.0658    1.5577 C   0  0  0  0  0  0  0  0  0  0  0  0
    0.8972    2.9160    0.2336 C   0  0  0  0  0  0  0  0  0  0  0  0
    0.6987    1.6995   -0.4015 C   0  0  0  0  0  0  0  0  0  0  0  0
    0.1131    0.6633    0.3233 C   0  0  0  0  0  0  0  0  0  0  0  0
   -0.1127   -0.6619   -0.3275 C   0  0  0  0  0  0  0  0  0  0  0  0
   -0.6402   -1.7149    0.4177 C   0  0  0  0  0  0  0  0  0  0  0  0
   -0.8424   -2.9314   -0.2159 C   0  0  0  0  0  0  0  0  0  0  0  0
   -0.5240   -3.0608   -1.5627 C   0  0  0  0  0  0  0  0  0  0  0  0
   -0.0002   -1.9470   -2.2181 C   0  0  0  0  0  0  0  0  0  0  0  0
    0.2047   -0.7754   -1.6268 N   0  0  0  0  0  0  0  0  0  0  0  0
   -0.2694    0.7939    1.6037 N   0  0  0  0  0  0  0  0  0  0  0  0
   -0.0778    1.9685    2.1933 C   0  0  0  0  0  0  0  0  0  0  0  0
    0.6317    3.9947    2.0843 H   0  0  0  0  0  0  0  0  0  0  0  0
    1.3547    3.7359   -0.2974 H   0  0  0  0  0  0  0  0  0  0  0  0
    0.9915    1.5466   -1.4287 H   0  0  0  0  0  0  0  0  0  0  0  0
   -0.8754   -1.5779    1.4619 H   0  0  0  0  0  0  0  0  0  0  0  0
   -1.2457   -3.7669    0.3344 H   0  0  0  0  0  0  0  0  0  0  0  0
   -0.6704   -3.9871   -2.0901 H   0  0  0  0  0  0  0  0  0  0  0  0
    0.2661   -2.0044   -3.2666 H   0  0  0  0  0  0  0  0  0  0  0  0
   -0.4007    2.0435    3.2254 H   0  0  0  0  0  0  0  0  0  0  0  0
  1  2  2  0
  2  3  1  0
  3  4  2  0
  4  5  1  0
  5  6  2  0
  6  7  1  0
  7  8  2  0
  8  9  1  0
  9 10  2  0
  4 11  1  0
 11 12  2  0
 12  1  1  0
 10  5  1  0
  1 13  1  0
  2 14  1  0
  3 15  1  0
  6 16  1  0
  7 17  1  0
  8 18  1  0
  9 19  1  0
 12 20  1  0
M  END
$$$$

     RDKit          3D

 20 21  0  0  0  0  0  0  0  0999 V2000
   -0.9095    2.4850    2.2579 C   0  0  0  0  0  0  0  0  0  0  0  0
   -0.0944    2.8197    1.1834 C   0  0  0  0  0  0  0  0  0  0  0  0
    0.2683    1.8402    0.2728 C   0  0  0  0  0  0  0  0  0  0  0  0
   -0.2023    0.5430    0.4720 C   0  0  0  0  0  0  0  0  0  0  0  0
    0.1824   -0.5397   -0.4833 C   0  0  0  0  0  0  0  0  0  0  0  0
   -0.3074   -1.8321   -0.3002 C   0  0  0  0  0  0  0  0  0  0  0  0
    0.0796   -2.8170   -1.1958 C   0  0  0  0  0  0  0  0  0  0  0  0
    0.9319   -2.4901   -2.2440 C   0  0  0  0  0  0  0  0  0  0  0  0
    1.3605   -1.1667   -2.3440 C   0  0  0  0  0  0  0  0  0  0  0  0
    1.0024   -0.2123   -1.4926 N   0  0  0  0  0  0  0  0  0  0  0  0
   -0.9959    0.2094    1.5008 N   0  0  0  0  0  0  0  0  0  0  0  0
   -1.3294    1.1601    2.3676 C   0  0  0  0  0  0  0  0  0  0  0  0
   -1.2100    3.2158    2.9873 H   0  0  0  0  0  0  0  0  0  0  0  0
    0.2528    3.8320    1.0511 H   0  0  0  0  0  0  0  0  0  0  0  0
    0.9038    2.0665   -0.5692 H   0  0  0  0  0  0  0  0  0  0  0  0
   -0.9665   -2.0516    0.5249 H   0  0  0  0  0  0  0  0  0  0  0  0
   -0.2833   -3.8253   -1.0754 H   0  0  0  0  0  0  0  0  0  0  0  0
    1.2563   -3.2250   -2.9585 H   0  0  0  0  0  0  0  0  0  0  0  0
    2.0260   -0.8654   -3.1426 H   0  0  0  0  0  0  0  0  0  0  0  0
   -1.9654    0.8534    3.1878 H   0  0  0  0  0  0  0  0  0  0  0  0
  1  2  2  0
  2  3  1  0
  3  4  2  0
  4  5  1  0
  5  6  2  0
  6  7  1  0
  7  8  2  0
  8  9  1  0
  9 10  2  0
  4 11  1  0
 11 12  2  0
 12  1  1  0
 10  5  1  0
  1 13  1  0
  2 14  1  0
  3 15  1  0
  6 16  1  0
  7 17  1  0
  8 18  1  0
  9 19  1  0
 12 20  1  0
M  END
$$$$

     RDKit          3D

 20 21  0  0  0  0  0  0  0  0999 V2000
   -2.2592    0.8633    2.4998 C   0  0  0  0  0  0  0  0  0  0  0  0
   -2.4146   -0.3508    1.8416 C   0  0  0  0  0  0  0  0  0  0  0  0
   -1.5202   -0.7050    0.8428 C   0  0  0  0  0  0  0  0  0  0  0  0
   -0.4919    0.1825    0.5310 C   0  0  0  0  0  0  0  0  0  0  0  0
    0.4856   -0.1676   -0.5419 C   0  0  0  0  0  0  0  0  0  0  0  0
    1.5443    0.6940   -0.8229 C   0  0  0  0  0  0  0  0  0  0  0  0
    2.4411    0.3303   -1.8156 C   0  0  0  0  0  0  0  0  0  0  0  0
    2.2571   -0.8681   -2.4974 C   0  0  0  0  0  0  0  0  0  0  0  0
    1.1600   -1.6551   -2.1463 C   0  0  0  0  0  0  0  0  0  0  0  0
    0.2938   -1.3236   -1.1979 N   0  0  0  0  0  0  0  0  0  0  0  0
   -0.3309    1.3555    1.1596 N   0  0  0  0  0  0  0  0  0  0  0  0
   -1.1975    1.6803    2.1124 C   0  0  0  0  0  0  0  0  0  0  0  0
   -2.9308    1.1715    3.2824 H   0  0  0  0  0  0  0  0  0  0  0  0
   -3.2200   -1.0183    2.1056 H   0  0  0  0  0  0  0  0  0  0  0  0
   -1.6118   -1.6392    0.3116 H   0  0  0  0  0  0  0  0  0  0  0  0
    1.6573    1.6184   -0.2772 H   0  0  0  0  0  0  0  0  0  0  0  0
    3.2728    0.9755   -2.0535 H   0  0  0  0  0  0  0  0  0  0  0  0
    2.9313   -1.1861   -3.2729 H   0  0  0  0  0  0  0  0  0  0  0  0
    0.9732   -2.5939   -2.6553 H   0  0  0  0  0  0  0  0  0  0  0  0
   -1.0396    2.6363    2.5941 H   0  0  0  0  0  0  0  0  0  0  0  0
  1  2  2  0
  2  3  1  0
  3  4  2  0
  4  5  1  0
  5  6  2  0
  6  7  1  0
  7  8  2  0
  8  9  1  0
  9 10  2  0
  4 11  1  0
 11 12  2  0
 12  1  1  0
 10  5  1  0
  1 13  1  0
  2 14  1  0
  3 15  1  0
  6 16  1  0
  7 17  1  0
  8 18  1  0
  9 19  1  0
 12 20  1  0
M  END
$$$$

     RDKit          3D

 20 21  0  0  0  0  0  0  0  0999 V2000
   -1.1151    1.3134    3.0227 C   0  0  0  0  0  0  0  0  0  0  0  0
   -1.9619    1.3506    1.9212 C   0  0  0  0  0  0  0  0  0  0  0  0
   -1.5313    0.8262    0.7116 C   0  0  0  0  0  0  0  0  0  0  0  0
   -0.2507    0.2802    0.6449 C   0  0  0  0  0  0  0  0  0  0  0  0
    0.2484   -0.2881   -0.6433 C   0  0  0  0  0  0  0  0  0  0  0  0
    1.5319   -0.8266   -0.7127 C   0  0  0  0  0  0  0  0  0  0  0  0
    1.9672   -1.3379   -1.9254 C   0  0  0  0  0  0  0  0  0  0  0  0
    1.1156   -1.3110   -3.0234 C   0  0  0  0  0  0  0  0  0  0  0  0
   -0.1524   -0.7583   -2.8478 C   0  0  0  0  0  0  0  0  0  0  0  0
   -0.5818   -0.2548   -1.6960 N   0  0  0  0  0  0  0  0  0  0  0  0
    0.5748    0.2413    1.7009 N   0  0  0  0  0  0  0  0  0  0  0  0
    0.1476    0.7479    2.8512 C   0  0  0  0  0  0  0  0  0  0  0  0
   -1.4126    1.7069    3.9788 H   0  0  0  0  0  0  0  0  0  0  0  0
   -2.9480    1.7793    2.0024 H   0  0  0  0  0  0  0  0  0  0  0  0
   -2.1622    0.8399   -0.1632 H   0  0  0  0  0  0  0  0  0  0  0  0
    2.1662   -0.8380    0.1596 H   0  0  0  0  0  0  0  0  0  0  0  0
    2.9589   -1.7528   -2.0091 H   0  0  0  0  0  0  0  0  0  0  0  0
    1.4163   -1.6997   -3.9803 H   0  0  0  0  0  0  0  0  0  0  0  0
   -0.8533   -0.7192   -3.6719 H   0  0  0  0  0  0  0  0  0  0  0  0
    0.8426    0.7006    3.6797 H   0  0  0  0  0  0  0  0  0  0  0  0
  1  2  2  0
  2  3  1  0
  3  4  2  0
  4  5  1  0
  5  6  2  0
  6  7  1  0
  7  8  2  0
  8  9  1  0
  9 10  2  0
  4 11  1  0
 11 12  2  0
 12  1  1  0
 10  5  1  0
  1 13  1  0
  2 14  1  0
  3 15  1  0
  6 16  1  0
  7 17  1  0
  8 18  1  0
  9 19  1  0
 12 20  1  0
M  END
$$$$

     RDKit          3D

 20 21  0  0  0  0  0  0  0  0999 V2000
    3.0345    1.5163    0.7634 C   0  0  0  0  0  0  0  0  0  0  0  0
    1.8570    2.1226    1.1837 C   0  0  0  0  0  0  0  0  0  0  0  0
    0.6417    1.5259    0.8856 C   0  0  0  0  0  0  0  0  0  0  0  0
    0.6495    0.3328    0.1658 C   0  0  0  0  0  0  0  0  0  0  0  0
   -0.6447   -0.3311   -0.1742 C   0  0  0  0  0  0  0  0  0  0  0  0
   -0.6400   -1.5594   -0.8322 C   0  0  0  0  0  0  0  0  0  0  0  0
   -1.8580   -2.1480   -1.1379 C   0  0  0  0  0  0  0  0  0  0  0  0
   -3.0368   -1.5058   -0.7772 C   0  0  0  0  0  0  0  0  0  0  0  0
   -2.9343   -0.2792   -0.1222 C   0  0  0  0  0  0  0  0  0  0  0  0
   -1.7771    0.2989    0.1788 N   0  0  0  0  0  0  0  0  0  0  0  0
    1.7794   -0.2644   -0.2443 N   0  0  0  0  0  0  0  0  0  0  0  0
    2.9348    0.3214    0.0521 C   0  0  0  0  0  0  0  0  0  0  0  0
    3.9975    1.9469    0.9750 H   0  0  0  0  0  0  0  0  0  0  0  0
    1.8830    3.0466    1.7392 H   0  0  0  0  0  0  0  0  0  0  0  0
   -0.2928    1.9646    1.1984 H   0  0  0  0  0  0  0  0  0  0  0  0
    0.2938   -2.0317   -1.0957 H   0  0  0  0  0  0  0  0  0  0  0  0
   -1.8849   -3.0988   -1.6460 H   0  0  0  0  0  0  0  0  0  0  0  0
   -4.0020   -1.9304   -0.9927 H   0  0  0  0  0  0  0  0  0  0  0  0
   -3.8282    0.2580    0.1735 H   0  0  0  0  0  0  0  0  0  0  0  0
    3.8276   -0.1852   -0.2934 H   0  0  0  0  0  0  0  0  0  0  0  0
  1  2  2  0
  2  3  1  0
  3  4  2  0
  4  5  1  0
  5  6  2  0
  6  7  1  0
  7  8  2  0
  8  9  1  0
  9 10  2  0
  4 11  1  0
 11 12  2  0
 12  1  1  0
 10  5  1  0
  1 13  1  0
  2 14  1  0
  3 15  1  0
  6 16  1  0
  7 17  1  0
  8 18  1  0
  9 19  1  0
 12 20  1  0
M  END
$$$$

     RDKit          3D

 20 21  0  0  0  0  0  0  0  0999 V2000
    0.1346   -1.6579   -3.0545 C   0  0  0  0  0  0  0  0  0  0  0  0
   -0.3287   -0.3479   -3.0233 C   0  0  0  0  0  0  0  0  0  0  0  0
   -0.3836    0.3270   -1.8127 C   0  0  0  0  0  0  0  0  0  0  0  0
    0.0296   -0.3425   -0.6623 C   0  0  0  0  0  0  0  0  0  0  0  0
   -0.0200    0.3504    0.6602 C   0  0  0  0  0  0  0  0  0  0  0  0
    0.4021   -0.3187    1.8074 C   0  0  0  0  0  0  0  0  0  0  0  0
    0.3310    0.3466    3.0218 C   0  0  0  0  0  0  0  0  0  0  0  0
   -0.1441    1.6523    3.0574 C   0  0  0  0  0  0  0  0  0  0  0  0
   -0.5369    2.2346    1.8528 C   0  0  0  0  0  0  0  0  0  0  0  0
   -0.4788    1.6108    0.6818 N   0  0  0  0  0  0  0  0  0  0  0  0
    0.4790   -1.6064   -0.6811 N   0  0  0  0  0  0  0  0  0  0  0  0
    0.5243   -2.2384   -1.8479 C   0  0  0  0  0  0  0  0  0  0  0  0
    0.1934   -2.2147   -3.9732 H   0  0  0  0  0  0  0  0  0  0  0  0
   -0.6391    0.1452   -3.9313 H   0  0  0  0  0  0  0  0  0  0  0  0
   -0.7405    1.3428   -1.7518 H   0  0  0  0  0  0  0  0  0  0  0  0
    0.7695   -1.3309    1.7426 H   0  0  0  0  0  0  0  0  0  0  0  0
    0.6504   -0.1468    3.9260 H   0  0  0  0  0  0  0  0  0  0  0  0
   -0.2147    2.2036    3.9781 H   0  0  0  0  0  0  0  0  0  0  0  0
   -0.9177    3.2481    1.8336 H   0  0  0  0  0  0  0  0  0  0  0  0
    0.8905   -3.2572   -1.8236 H   0  0  0  0  0  0  0  0  0  0  0  0
  1  2  2  0
  2  3  1  0
  3  4  2  0
  4  5  1  0
  5  6  2  0
  6  7  1  0
  7  8  2  0
  8  9  1  0
  9 10  2  0
  4 11  1  0
 11 12  2  0
 12  1  1  0
 10  5  1  0
  1 13  1  0
  2 14  1  0
  3 15  1  0
  6 16  1  0
  7 17  1  0
  8 18  1  0
  9 19  1  0
 12 20  1  0
M  END
$$$$
