
     RDKit          3D

 34 36  0  0  0  0  0  0  0  0999 V2000
   -2.4898   -3.4790   -2.7458 C   0  0  0  0  0  0  0  0  0  0  0  0
   -1.6167   -2.5649   -1.9314 C   0  0  0  0  0  0  0  0  0  0  0  0
   -0.3032   -2.9267   -1.6297 C   0  0  0  0  0  0  0  0  0  0  0  0
    0.5484   -2.1808   -0.9144 N   0  0  0  0  0  0  0  0  0  0  0  0
    0.1313   -1.0107   -0.4591 C   0  0  0  0  0  0  0  0  0  0  0  0
   -1.1843   -0.5270   -0.7093 C   0  0  0  0  0  0  0  0  0  0  0  0
   -1.5575    0.7463   -0.2077 C   0  0  0  0  0  0  0  0  0  0  0  0
   -0.6945    1.5173    0.5047 C   0  0  0  0  0  0  0  0  0  0  0  0
    0.6240    1.0801    0.7935 C   0  0  0  0  0  0  0  0  0  0  0  0
    1.5423    1.8759    1.5386 C   0  0  0  0  0  0  0  0  0  0  0  0
    1.1306    3.2196    2.0421 C   0  0  0  0  0  0  0  0  0  0  0  0
    2.8154    1.3584    1.7663 C   0  0  0  0  0  0  0  0  0  0  0  0
    3.8550    2.1308    2.5311 C   0  0  0  0  0  0  0  0  0  0  0  0
    3.1129    0.0942    1.2590 C   0  0  0  0  0  0  0  0  0  0  0  0
    2.2631   -0.6680    0.5597 N   0  0  0  0  0  0  0  0  0  0  0  0
    1.0500   -0.1942    0.3183 C   0  0  0  0  0  0  0  0  0  0  0  0
   -2.0827   -1.3407   -1.4589 C   0  0  0  0  0  0  0  0  0  0  0  0
   -3.4782   -0.8720   -1.7024 C   0  0  0  0  0  0  0  0  0  0  0  0
   -3.3867   -3.7451   -2.1976 H   0  0  0  0  0  0  0  0  0  0  0  0
   -1.9489   -4.3942   -2.9993 H   0  0  0  0  0  0  0  0  0  0  0  0
   -2.7974   -2.9985   -3.6695 H   0  0  0  0  0  0  0  0  0  0  0  0
    0.0704   -3.8758   -1.9813 H   0  0  0  0  0  0  0  0  0  0  0  0
   -2.5563    1.1115   -0.4061 H   0  0  0  0  0  0  0  0  0  0  0  0
   -1.0163    2.4886    0.8591 H   0  0  0  0  0  0  0  0  0  0  0  0
    0.2619    3.1423    2.7000 H   0  0  0  0  0  0  0  0  0  0  0  0
    0.8485    3.8748    1.2167 H   0  0  0  0  0  0  0  0  0  0  0  0
    1.9290    3.7015    2.5985 H   0  0  0  0  0  0  0  0  0  0  0  0
    3.5338    2.3033    3.5559 H   0  0  0  0  0  0  0  0  0  0  0  0
    4.7982    1.5765    2.5530 H   0  0  0  0  0  0  0  0  0  0  0  0
    4.0312    3.0967    2.0711 H   0  0  0  0  0  0  0  0  0  0  0  0
    4.0980   -0.3168    1.4258 H   0  0  0  0  0  0  0  0  0  0  0  0
   -4.0417   -1.5902   -2.2893 H   0  0  0  0  0  0  0  0  0  0  0  0
   -4.0072   -0.7139   -0.7589 H   0  0  0  0  0  0  0  0  0  0  0  0
   -3.4828    0.0809   -2.2328 H   0  0  0  0  0  0  0  0  0  0  0  0
  1  2  1  0
  2  3  2  0
  3  4  1  0
  4  5  2  0
  5  6  1  0
  6  7  1  0
  7  8  2  0
  8  9  1  0
  9 10  2  0
 10 11  1  0
 10 12  1  0
 12 13  1  0
 12 14  2  0
 14 15  1  0
 15 16  2  0
  6 17  2  0
 17 18  1  0
 17  2  1  0
 16  5  1  0
 16  9  1  0
  1 19  1  0
  1 20  1  0
  1 21  1  0
  3 22  1  0
  7 23  1  0
  8 24  1  0
 11 25  1  0
 11 26  1  0
 11 27  1  0
 13 28  1  0
 13 29  1  0
 13 30  1  0
 14 31  1  0
 18 32  1  0
 18 33  1  0
 18 34  1  0
M  END
$$$$

     RDKit          3D

 34 36  0  0  0  0  0  0  0  0999 V2000
    1.8142   -2.8574    3.7929 C   0  0  0  0  0  0  0  0  0  0  0  0
    1.4183   -2.0683    2.5760 C   0  0  0  0  0  0  0  0  0  0  0  0
    2.2153   -2.0885    1.4322 C   0  0  0  0  0  0  0  0  0  0  0  0
    1.9512   -1.4168    0.3008 N   0  0  0  0  0  0  0  0  0  0  0  0
    0.8526   -0.6864    0.2477 C   0  0  0  0  0  0  0  0  0  0  0  0
   -0.0471   -0.5955    1.3506 C   0  0  0  0  0  0  0  0  0  0  0  0
   -1.2086    0.2058    1.2260 C   0  0  0  0  0  0  0  0  0  0  0  0
   -1.4794    0.8954    0.0888 C   0  0  0  0  0  0  0  0  0  0  0  0
   -0.6178    0.8494   -1.0372 C   0  0  0  0  0  0  0  0  0  0  0  0
   -0.8888    1.5812   -2.2306 C   0  0  0  0  0  0  0  0  0  0  0  0
   -2.1125    2.4305   -2.3146 C   0  0  0  0  0  0  0  0  0  0  0  0
    0.0124    1.4689   -3.2874 C   0  0  0  0  0  0  0  0  0  0  0  0
   -0.1906    2.2079   -4.5815 C   0  0  0  0  0  0  0  0  0  0  0  0
    1.1215    0.6401   -3.1145 C   0  0  0  0  0  0  0  0  0  0  0  0
    1.3924   -0.0464   -1.9986 N   0  0  0  0  0  0  0  0  0  0  0  0
    0.5567    0.0470   -0.9756 C   0  0  0  0  0  0  0  0  0  0  0  0
    0.2508   -1.3108    2.5463 C   0  0  0  0  0  0  0  0  0  0  0  0
   -0.6739   -1.2280    3.7152 C   0  0  0  0  0  0  0  0  0  0  0  0
    1.0761   -3.6204    4.0189 H   0  0  0  0  0  0  0  0  0  0  0  0
    1.8989   -2.2140    4.6635 H   0  0  0  0  0  0  0  0  0  0  0  0
    2.7787   -3.3502    3.6281 H   0  0  0  0  0  0  0  0  0  0  0  0
    3.1191   -2.6758    1.4377 H   0  0  0  0  0  0  0  0  0  0  0  0
   -1.8952    0.2618    2.0614 H   0  0  0  0  0  0  0  0  0  0  0  0
   -2.3763    1.4979    0.0369 H   0  0  0  0  0  0  0  0  0  0  0  0
   -2.1231    3.1732   -1.5125 H   0  0  0  0  0  0  0  0  0  0  0  0
   -2.1745    2.9545   -3.2633 H   0  0  0  0  0  0  0  0  0  0  0  0
   -3.0126    1.8267   -2.1957 H   0  0  0  0  0  0  0  0  0  0  0  0
    0.6184    1.9712   -5.2788 H   0  0  0  0  0  0  0  0  0  0  0  0
   -0.2013    3.2819   -4.4201 H   0  0  0  0  0  0  0  0  0  0  0  0
   -1.1336    1.9329   -5.0406 H   0  0  0  0  0  0  0  0  0  0  0  0
    1.8260    0.5304   -3.9251 H   0  0  0  0  0  0  0  0  0  0  0  0
   -0.7471   -0.2010    4.0815 H   0  0  0  0  0  0  0  0  0  0  0  0
   -1.6830   -1.5413    3.4383 H   0  0  0  0  0  0  0  0  0  0  0  0
   -0.3372   -1.8558    4.5336 H   0  0  0  0  0  0  0  0  0  0  0  0
  1  2  1  0
  2  3  2  0
  3  4  1  0
  4  5  2  0
  5  6  1  0
  6  7  1  0
  7  8  2  0
  8  9  1  0
  9 10  2  0
 10 11  1  0
 10 12  1  0
 12 13  1  0
 12 14  2  0
 14 15  1  0
 15 16  2  0
  6 17  2  0
 17 18  1  0
 17  2  1  0
 16  5  1  0
 16  9  1  0
  1 19  1  0
  1 20  1  0
  1 21  1  0
  3 22  1  0
  7 23  1  0
  8 24  1  0
 11 25  1  0
 11 26  1  0
 11 27  1  0
 13 28  1  0
 13 29  1  0
 13 30  1  0
 14 31  1  0
 18 32  1  0
 18 33  1  0
 18 34  1  0
M  END
$$$$

     RDKit          3D

 34 36  0  0  0  0  0  0  0  0999 V2000
    4.0769   -3.0327   -0.1704 C   0  0  0  0  0  0  0  0  0  0  0  0
    2.8626   -2.1737    0.0527 C   0  0  0  0  0  0  0  0  0  0  0  0
    2.3000   -2.0648    1.3248 C   0  0  0  0  0  0  0  0  0  0  0  0
    1.2207   -1.3308    1.6264 N   0  0  0  0  0  0  0  0  0  0  0  0
    0.6426   -0.6391    0.6580 C   0  0  0  0  0  0  0  0  0  0  0  0
    1.1360   -0.6565   -0.6802 C   0  0  0  0  0  0  0  0  0  0  0  0
    0.4846    0.1356   -1.6612 C   0  0  0  0  0  0  0  0  0  0  0  0
   -0.6067    0.8847   -1.3637 C   0  0  0  0  0  0  0  0  0  0  0  0
   -1.1598    0.9141   -0.0573 C   0  0  0  0  0  0  0  0  0  0  0  0
   -2.3237    1.6725    0.2567 C   0  0  0  0  0  0  0  0  0  0  0  0
   -3.0240    2.4340   -0.8187 C   0  0  0  0  0  0  0  0  0  0  0  0
   -2.7627    1.6772    1.5768 C   0  0  0  0  0  0  0  0  0  0  0  0
   -3.9594    2.4785    2.0079 C   0  0  0  0  0  0  0  0  0  0  0  0
   -2.0577    0.9106    2.5051 C   0  0  0  0  0  0  0  0  0  0  0  0
   -0.9786    0.1715    2.2238 N   0  0  0  0  0  0  0  0  0  0  0  0
   -0.5293    0.1647    0.9771 C   0  0  0  0  0  0  0  0  0  0  0  0
    2.2692   -1.4636   -0.9887 C   0  0  0  0  0  0  0  0  0  0  0  0
    2.7768   -1.5339   -2.3905 C   0  0  0  0  0  0  0  0  0  0  0  0
    4.8979   -2.4461   -0.5769 H   0  0  0  0  0  0  0  0  0  0  0  0
    4.4072   -3.4774    0.7728 H   0  0  0  0  0  0  0  0  0  0  0  0
    3.8603   -3.8299   -0.8739 H   0  0  0  0  0  0  0  0  0  0  0  0
    2.7479   -2.6088    2.1421 H   0  0  0  0  0  0  0  0  0  0  0  0
    0.8754    0.1396   -2.6715 H   0  0  0  0  0  0  0  0  0  0  0  0
   -1.0682    1.4829   -2.1370 H   0  0  0  0  0  0  0  0  0  0  0  0
   -3.9316    2.9005   -0.4495 H   0  0  0  0  0  0  0  0  0  0  0  0
   -3.2970    1.7761   -1.6474 H   0  0  0  0  0  0  0  0  0  0  0  0
   -2.3781    3.2116   -1.2279 H   0  0  0  0  0  0  0  0  0  0  0  0
   -4.8628    2.1153    1.5283 H   0  0  0  0  0  0  0  0  0  0  0  0
   -4.0905    2.4072    3.0908 H   0  0  0  0  0  0  0  0  0  0  0  0
   -3.8402    3.5241    1.7397 H   0  0  0  0  0  0  0  0  0  0  0  0
   -2.3924    0.9005    3.5306 H   0  0  0  0  0  0  0  0  0  0  0  0
    3.1253   -0.5590   -2.7336 H   0  0  0  0  0  0  0  0  0  0  0  0
    3.5974   -2.2378   -2.4892 H   0  0  0  0  0  0  0  0  0  0  0  0
    1.9820   -1.8473   -3.0763 H   0  0  0  0  0  0  0  0  0  0  0  0
  1  2  1  0
  2  3  2  0
  3  4  1  0
  4  5  2  0
  5  6  1  0
  6  7  1  0
  7  8  2  0
  8  9  1  0
  9 10  2  0
 10 11  1  0
 10 12  1  0
 12 13  1  0
 12 14  2  0
 14 15  1  0
 15 16  2  0
  6 17  2  0
 17 18  1  0
 17  2  1  0
 16  5  1  0
 16  9  1  0
  1 19  1  0
  1 20  1  0
  1 21  1  0
  3 22  1  0
  7 23  1  0
  8 24  1  0
 11 25  1  0
 11 26  1  0
 11 27  1  0
 13 28  1  0
 13 29  1  0
 13 30  1  0
 14 31  1  0
 18 32  1  0
 18 33  1  0
 18 34  1  0
M  END
$$$$

     RDKit          3D

 34 36  0  0  0  0  0  0  0  0999 V2000
    1.6507   -0.4730   -4.7837 C   0  0  0  0  0  0  0  0  0  0  0  0
    1.1204   -0.1678   -3.4091 C   0  0  0  0  0  0  0  0  0  0  0  0
    0.6027    1.0941   -3.1186 C   0  0  0  0  0  0  0  0  0  0  0  0
    0.0967    1.4598   -1.9335 N   0  0  0  0  0  0  0  0  0  0  0  0
    0.0941    0.5727   -0.9510 C   0  0  0  0  0  0  0  0  0  0  0  0
    0.6042   -0.7466   -1.1240 C   0  0  0  0  0  0  0  0  0  0  0  0
    0.5798   -1.6417   -0.0245 C   0  0  0  0  0  0  0  0  0  0  0  0
    0.0822   -1.2730    1.1849 C   0  0  0  0  0  0  0  0  0  0  0  0
   -0.4439    0.0259    1.4113 C   0  0  0  0  0  0  0  0  0  0  0  0
   -0.9658    0.4283    2.6748 C   0  0  0  0  0  0  0  0  0  0  0  0
   -0.9477   -0.5231    3.8245 C   0  0  0  0  0  0  0  0  0  0  0  0
   -1.4739    1.7206    2.7919 C   0  0  0  0  0  0  0  0  0  0  0  0
   -2.0461    2.2285    4.0843 C   0  0  0  0  0  0  0  0  0  0  0  0
   -1.4381    2.5439    1.6663 C   0  0  0  0  0  0  0  0  0  0  0  0
   -0.9449    2.1844    0.4783 N   0  0  0  0  0  0  0  0  0  0  0  0
   -0.4543    0.9639    0.3392 C   0  0  0  0  0  0  0  0  0  0  0  0
    1.1207   -1.1251   -2.3993 C   0  0  0  0  0  0  0  0  0  0  0  0
    1.6422   -2.5061   -2.6143 C   0  0  0  0  0  0  0  0  0  0  0  0
    1.0928   -1.2852   -5.2414 H   0  0  0  0  0  0  0  0  0  0  0  0
    1.5644    0.4093   -5.4253 H   0  0  0  0  0  0  0  0  0  0  0  0
    2.6939   -0.7702   -4.7384 H   0  0  0  0  0  0  0  0  0  0  0  0
    0.6007    1.8463   -3.8925 H   0  0  0  0  0  0  0  0  0  0  0  0
    0.9732   -2.6418   -0.1569 H   0  0  0  0  0  0  0  0  0  0  0  0
    0.0909   -1.9851    1.9989 H   0  0  0  0  0  0  0  0  0  0  0  0
   -1.5228   -1.4227    3.5972 H   0  0  0  0  0  0  0  0  0  0  0  0
   -1.3662   -0.0731    4.7181 H   0  0  0  0  0  0  0  0  0  0  0  0
    0.0732   -0.8415    4.0493 H   0  0  0  0  0  0  0  0  0  0  0  0
   -2.3849    3.2614    3.9722 H   0  0  0  0  0  0  0  0  0  0  0  0
   -2.8870    1.6178    4.3965 H   0  0  0  0  0  0  0  0  0  0  0  0
   -1.3036    2.1967    4.8756 H   0  0  0  0  0  0  0  0  0  0  0  0
   -1.8373    3.5433    1.7371 H   0  0  0  0  0  0  0  0  0  0  0  0
    0.8792   -3.2535   -2.3825 H   0  0  0  0  0  0  0  0  0  0  0  0
    2.4950   -2.7075   -1.9635 H   0  0  0  0  0  0  0  0  0  0  0  0
    1.9594   -2.6598   -3.6420 H   0  0  0  0  0  0  0  0  0  0  0  0
  1  2  1  0
  2  3  2  0
  3  4  1  0
  4  5  2  0
  5  6  1  0
  6  7  1  0
  7  8  2  0
  8  9  1  0
  9 10  2  0
 10 11  1  0
 10 12  1  0
 12 13  1  0
 12 14  2  0
 14 15  1  0
 15 16  2  0
  6 17  2  0
 17 18  1  0
 17  2  1  0
 16  5  1  0
 16  9  1  0
  1 19  1  0
  1 20  1  0
  1 21  1  0
  3 22  1  0
  7 23  1  0
  8 24  1  0
 11 25  1  0
 11 26  1  0
 11 27  1  0
 13 28  1  0
 13 29  1  0
 13 30  1  0
 14 31  1  0
 18 32  1  0
 18 33  1  0
 18 34  1  0
M  END
$$$$

     RDKit          3D

 34 36  0  0  0  0  0  0  0  0999 V2000
   -4.3051    2.7136    0.1163 C   0  0  0  0  0  0  0  0  0  0  0  0
   -2.9743    2.0349   -0.0337 C   0  0  0  0  0  0  0  0  0  0  0  0
   -1.9929    2.5734   -0.8662 C   0  0  0  0  0  0  0  0  0  0  0  0
   -0.7782    2.0426   -1.0605 N   0  0  0  0  0  0  0  0  0  0  0  0
   -0.4758    0.9224   -0.4268 C   0  0  0  0  0  0  0  0  0  0  0  0
   -1.3980    0.2743    0.4460 C   0  0  0  0  0  0  0  0  0  0  0  0
   -1.0089   -0.9309    1.0823 C   0  0  0  0  0  0  0  0  0  0  0  0
    0.2124   -1.4897    0.8766 C   0  0  0  0  0  0  0  0  0  0  0  0
    1.1781   -0.8850    0.0313 C   0  0  0  0  0  0  0  0  0  0  0  0
    2.4716   -1.4422   -0.1820 C   0  0  0  0  0  0  0  0  0  0  0  0
    2.9232   -2.7166    0.4507 C   0  0  0  0  0  0  0  0  0  0  0  0
    3.3572   -0.7409   -1.0038 C   0  0  0  0  0  0  0  0  0  0  0  0
    4.7545   -1.2441   -1.2433 C   0  0  0  0  0  0  0  0  0  0  0  0
    2.9120    0.4376   -1.5967 C   0  0  0  0  0  0  0  0  0  0  0  0
    1.6944    0.9661   -1.4266 N   0  0  0  0  0  0  0  0  0  0  0  0
    0.8446    0.3413   -0.6277 C   0  0  0  0  0  0  0  0  0  0  0  0
   -2.6829    0.8554    0.6453 C   0  0  0  0  0  0  0  0  0  0  0  0
   -3.6635    0.2006    1.5607 C   0  0  0  0  0  0  0  0  0  0  0  0
   -4.5004    2.9600    1.1569 H   0  0  0  0  0  0  0  0  0  0  0  0
   -4.3286    3.6372   -0.4681 H   0  0  0  0  0  0  0  0  0  0  0  0
   -5.1046    2.0676   -0.2253 H   0  0  0  0  0  0  0  0  0  0  0  0
   -2.2059    3.4831   -1.4053 H   0  0  0  0  0  0  0  0  0  0  0  0
   -1.7065   -1.4170    1.7525 H   0  0  0  0  0  0  0  0  0  0  0  0
    0.4527   -2.4163    1.3735 H   0  0  0  0  0  0  0  0  0  0  0  0
    3.3621   -3.3794   -0.2989 H   0  0  0  0  0  0  0  0  0  0  0  0
    3.6959   -2.5224    1.1936 H   0  0  0  0  0  0  0  0  0  0  0  0
    2.1054   -3.2446    0.9302 H   0  0  0  0  0  0  0  0  0  0  0  0
    5.2923   -1.3465   -0.3083 H   0  0  0  0  0  0  0  0  0  0  0  0
    5.2980   -0.5515   -1.8873 H   0  0  0  0  0  0  0  0  0  0  0  0
    4.7339   -2.2153   -1.7203 H   0  0  0  0  0  0  0  0  0  0  0  0
    3.5809    0.9773   -2.2484 H   0  0  0  0  0  0  0  0  0  0  0  0
   -4.6049    0.7357    1.5907 H   0  0  0  0  0  0  0  0  0  0  0  0
   -3.8676   -0.8264    1.2444 H   0  0  0  0  0  0  0  0  0  0  0  0
   -3.2710    0.1460    2.5781 H   0  0  0  0  0  0  0  0  0  0  0  0
  1  2  1  0
  2  3  2  0
  3  4  1  0
  4  5  2  0
  5  6  1  0
  6  7  1  0
  7  8  2  0
  8  9  1  0
  9 10  2  0
 10 11  1  0
 10 12  1  0
 12 13  1  0
 12 14  2  0
 14 15  1  0
 15 16  2  0
  6 17  2  0
 17 18  1  0
 17  2  1  0
 16  5  1  0
 16  9  1  0
  1 19  1  0
  1 20  1  0
  1 21  1  0
  3 22  1  0
  7 23  1  0
  8 24  1  0
 11 25  1  0
 11 26  1  0
 11 27  1  0
 13 28  1  0
 13 29  1  0
 13 30  1  0
 14 31  1  0
 18 32  1  0
 18 33  1  0
 18 34  1  0
M  END
$$$$

     RDKit          3D

 34 36  0  0  0  0  0  0  0  0999 V2000
   -0.8958   -2.8523   -4.1127 C   0  0  0  0  0  0  0  0  0  0  0  0
   -0.6801   -2.1559   -2.7977 C   0  0  0  0  0  0  0  0  0  0  0  0
   -0.8449   -2.8450   -1.5958 C   0  0  0  0  0  0  0  0  0  0  0  0
   -0.6681   -2.3132   -0.3783 N   0  0  0  0  0  0  0  0  0  0  0  0
   -0.3127   -1.0406   -0.2953 C   0  0  0  0  0  0  0  0  0  0  0  0
   -0.1114   -0.2341   -1.4534 C   0  0  0  0  0  0  0  0  0  0  0  0
    0.2946    1.1156   -1.2929 C   0  0  0  0  0  0  0  0  0  0  0  0
    0.4964    1.6593   -0.0661 C   0  0  0  0  0  0  0  0  0  0  0  0
    0.2969    0.9113    1.1225 C   0  0  0  0  0  0  0  0  0  0  0  0
    0.4959    1.4764    2.4150 C   0  0  0  0  0  0  0  0  0  0  0  0
    0.9420    2.8945    2.5512 C   0  0  0  0  0  0  0  0  0  0  0  0
    0.2657    0.6647    3.5231 C   0  0  0  0  0  0  0  0  0  0  0  0
    0.4309    1.1844    4.9227 C   0  0  0  0  0  0  0  0  0  0  0  0
   -0.1324   -0.6543    3.2996 C   0  0  0  0  0  0  0  0  0  0  0  0
   -0.3246   -1.2017    2.0923 N   0  0  0  0  0  0  0  0  0  0  0  0
   -0.1144   -0.4514    1.0223 C   0  0  0  0  0  0  0  0  0  0  0  0
   -0.3165   -0.8135   -2.7391 C   0  0  0  0  0  0  0  0  0  0  0  0
   -0.1337    0.0155   -3.9664 C   0  0  0  0  0  0  0  0  0  0  0  0
   -1.1393   -3.9063   -3.9491 H   0  0  0  0  0  0  0  0  0  0  0  0
   -0.0059   -2.7987   -4.7330 H   0  0  0  0  0  0  0  0  0  0  0  0
   -1.7065   -2.3862   -4.6623 H   0  0  0  0  0  0  0  0  0  0  0  0
   -1.1412   -3.8810   -1.6257 H   0  0  0  0  0  0  0  0  0  0  0  0
    0.4476    1.7248   -2.1753 H   0  0  0  0  0  0  0  0  0  0  0  0
    0.8147    2.6924    0.0138 H   0  0  0  0  0  0  0  0  0  0  0  0
    1.0996    3.1657    3.5908 H   0  0  0  0  0  0  0  0  0  0  0  0
    1.8806    3.0605    2.0140 H   0  0  0  0  0  0  0  0  0  0  0  0
    0.2081    3.5826    2.1306 H   0  0  0  0  0  0  0  0  0  0  0  0
    0.1614    0.4138    5.6500 H   0  0  0  0  0  0  0  0  0  0  0  0
   -0.2049    2.0500    5.0906 H   0  0  0  0  0  0  0  0  0  0  0  0
    1.4571    1.4876    5.1053 H   0  0  0  0  0  0  0  0  0  0  0  0
   -0.3074   -1.2951    4.1506 H   0  0  0  0  0  0  0  0  0  0  0  0
   -0.3882   -0.5355   -4.8653 H   0  0  0  0  0  0  0  0  0  0  0  0
    0.8986    0.3565   -4.0574 H   0  0  0  0  0  0  0  0  0  0  0  0
   -0.7623    0.9091   -3.9287 H   0  0  0  0  0  0  0  0  0  0  0  0
  1  2  1  0
  2  3  2  0
  3  4  1  0
  4  5  2  0
  5  6  1  0
  6  7  1  0
  7  8  2  0
  8  9  1  0
  9 10  2  0
 10 11  1  0
 10 12  1  0
 12 13  1  0
 12 14  2  0
 14 15  1  0
 15 16  2  0
  6 17  2  0
 17 18  1  0
 17  2  1  0
 16  5  1  0
 16  9  1  0
  1 19  1  0
  1 20  1  0
  1 21  1  0
  3 22  1  0
  7 23  1  0
  8 24  1  0
 11 25  1  0
 11 26  1  0
 11 27  1  0
 13 28  1  0
 13 29  1  0
 13 30  1  0
 14 31  1  0
 18 32  1  0
 18 33  1  0
 18 34  1  0
M  END
$$$$

     RDKit          3D

 34 36  0  0  0  0  0  0  0  0999 V2000
   -4.5711    2.2111   -0.1231 C   0  0  0  0  0  0  0  0  0  0  0  0
   -3.2974    1.4205    0.0087 C   0  0  0  0  0  0  0  0  0  0  0  0
   -3.3046    0.1331    0.5388 C   0  0  0  0  0  0  0  0  0  0  0  0
   -2.2236   -0.6408    0.6723 N   0  0  0  0  0  0  0  0  0  0  0  0
   -1.0512   -0.1631    0.2839 C   0  0  0  0  0  0  0  0  0  0  0  0
   -0.9111    1.1507   -0.2665 C   0  0  0  0  0  0  0  0  0  0  0  0
    0.3815    1.5939   -0.6441 C   0  0  0  0  0  0  0  0  0  0  0  0
    1.4811    0.7997   -0.5123 C   0  0  0  0  0  0  0  0  0  0  0  0
    1.3994   -0.5188    0.0008 C   0  0  0  0  0  0  0  0  0  0  0  0
    2.5293   -1.3748    0.1135 C   0  0  0  0  0  0  0  0  0  0  0  0
    3.8982   -0.9750   -0.3186 C   0  0  0  0  0  0  0  0  0  0  0  0
    2.3348   -2.6519    0.6456 C   0  0  0  0  0  0  0  0  0  0  0  0
    3.4878   -3.6048    0.8072 C   0  0  0  0  0  0  0  0  0  0  0  0
    1.0455   -3.0164    1.0232 C   0  0  0  0  0  0  0  0  0  0  0  0
   -0.0264   -2.2281    0.9192 N   0  0  0  0  0  0  0  0  0  0  0  0
    0.1240   -1.0148    0.4159 C   0  0  0  0  0  0  0  0  0  0  0  0
   -2.0772    1.9552   -0.4109 C   0  0  0  0  0  0  0  0  0  0  0  0
   -2.0522    3.3310   -0.9842 C   0  0  0  0  0  0  0  0  0  0  0  0
   -4.4957    3.1545    0.3987 H   0  0  0  0  0  0  0  0  0  0  0  0
   -4.7809    2.4243   -1.1641 H   0  0  0  0  0  0  0  0  0  0  0  0
   -5.4066    1.6453    0.2902 H   0  0  0  0  0  0  0  0  0  0  0  0
   -4.2416   -0.2880    0.8713 H   0  0  0  0  0  0  0  0  0  0  0  0
    0.5043    2.5875   -1.0480 H   0  0  0  0  0  0  0  0  0  0  0  0
    2.4427    1.1879   -0.8131 H   0  0  0  0  0  0  0  0  0  0  0  0
    3.9257    0.0317   -0.7177 H   0  0  0  0  0  0  0  0  0  0  0  0
    4.2675   -1.6585   -1.0817 H   0  0  0  0  0  0  0  0  0  0  0  0
    4.5938   -1.0319    0.5186 H   0  0  0  0  0  0  0  0  0  0  0  0
    4.2308   -3.1924    1.4795 H   0  0  0  0  0  0  0  0  0  0  0  0
    3.9657   -3.7885   -0.1445 H   0  0  0  0  0  0  0  0  0  0  0  0
    3.1381   -4.5506    1.2143 H   0  0  0  0  0  0  0  0  0  0  0  0
    0.8784   -4.0026    1.4291 H   0  0  0  0  0  0  0  0  0  0  0  0
   -2.7492    3.4045   -1.8226 H   0  0  0  0  0  0  0  0  0  0  0  0
   -2.3756    4.0626   -0.2446 H   0  0  0  0  0  0  0  0  0  0  0  0
   -1.0642    3.6074   -1.3347 H   0  0  0  0  0  0  0  0  0  0  0  0
  1  2  1  0
  2  3  2  0
  3  4  1  0
  4  5  2  0
  5  6  1  0
  6  7  1  0
  7  8  2  0
  8  9  1  0
  9 10  2  0
 10 11  1  0
 10 12  1  0
 12 13  1  0
 12 14  2  0
 14 15  1  0
 15 16  2  0
  6 17  2  0
 17 18  1  0
 17  2  1  0
 16  5  1  0
 16  9  1  0
  1 19  1  0
  1 20  1  0
  1 21  1  0
  3 22  1  0
  7 23  1  0
  8 24  1  0
 11 25  1  0
 11 26  1  0
 11 27  1  0
 13 28  1  0
 13 29  1  0
 13 30  1  0
 14 31  1  0
 18 32  1  0
 18 33  1  0
 18 34  1  0
M  END
$$$$

     RDKit          3D

 34 36  0  0  0  0  0  0  0  0999 V2000
   -3.5146   -3.5192    1.0526 C   0  0  0  0  0  0  0  0  0  0  0  0
   -2.5490   -2.3793    0.8755 C   0  0  0  0  0  0  0  0  0  0  0  0
   -2.7454   -1.1741    1.5489 C   0  0  0  0  0  0  0  0  0  0  0  0
   -1.9586   -0.0968    1.4367 N   0  0  0  0  0  0  0  0  0  0  0  0
   -0.9089   -0.1664    0.6348 C   0  0  0  0  0  0  0  0  0  0  0  0
   -0.5808   -1.3569   -0.0775 C   0  0  0  0  0  0  0  0  0  0  0  0
    0.5833   -1.3732   -0.8879 C   0  0  0  0  0  0  0  0  0  0  0  0
    1.3759   -0.2797   -1.0215 C   0  0  0  0  0  0  0  0  0  0  0  0
    1.0803    0.9405   -0.3624 C   0  0  0  0  0  0  0  0  0  0  0  0
    1.8938    2.1006   -0.5173 C   0  0  0  0  0  0  0  0  0  0  0  0
    3.0880    2.0615   -1.4121 C   0  0  0  0  0  0  0  0  0  0  0  0
    1.5320    3.2462    0.1860 C   0  0  0  0  0  0  0  0  0  0  0  0
    2.3290    4.5170    0.0875 C   0  0  0  0  0  0  0  0  0  0  0  0
    0.3930    3.1905    0.9902 C   0  0  0  0  0  0  0  0  0  0  0  0
   -0.3918    2.1142    1.1349 N   0  0  0  0  0  0  0  0  0  0  0  0
   -0.0646    1.0095    0.4834 C   0  0  0  0  0  0  0  0  0  0  0  0
   -1.4353   -2.4899    0.0453 C   0  0  0  0  0  0  0  0  0  0  0  0
   -1.1273   -3.7416   -0.7084 C   0  0  0  0  0  0  0  0  0  0  0  0
   -3.0082   -4.3906    1.4583 H   0  0  0  0  0  0  0  0  0  0  0  0
   -4.3169   -3.2321    1.7400 H   0  0  0  0  0  0  0  0  0  0  0  0
   -3.9573   -3.8012    0.1029 H   0  0  0  0  0  0  0  0  0  0  0  0
   -3.5895   -1.0804    2.2167 H   0  0  0  0  0  0  0  0  0  0  0  0
    0.8436   -2.2859   -1.4086 H   0  0  0  0  0  0  0  0  0  0  0  0
    2.2580   -0.3334   -1.6456 H   0  0  0  0  0  0  0  0  0  0  0  0
    3.8130    1.3226   -1.0633 H   0  0  0  0  0  0  0  0  0  0  0  0
    2.8027    1.7722   -2.4267 H   0  0  0  0  0  0  0  0  0  0  0  0
    3.5830    3.0234   -1.4648 H   0  0  0  0  0  0  0  0  0  0  0  0
    2.3370    4.8929   -0.9313 H   0  0  0  0  0  0  0  0  0  0  0  0
    1.8928    5.2830    0.7356 H   0  0  0  0  0  0  0  0  0  0  0  0
    3.3580    4.3569    0.3888 H   0  0  0  0  0  0  0  0  0  0  0  0
    0.1029    4.0686    1.5465 H   0  0  0  0  0  0  0  0  0  0  0  0
   -1.0998   -3.5483   -1.7847 H   0  0  0  0  0  0  0  0  0  0  0  0
   -0.1496   -4.1389   -0.4284 H   0  0  0  0  0  0  0  0  0  0  0  0
   -1.8685   -4.5116   -0.5241 H   0  0  0  0  0  0  0  0  0  0  0  0
  1  2  1  0
  2  3  2  0
  3  4  1  0
  4  5  2  0
  5  6  1  0
  6  7  1  0
  7  8  2  0
  8  9  1  0
  9 10  2  0
 10 11  1  0
 10 12  1  0
 12 13  1  0
 12 14  2  0
 14 15  1  0
 15 16  2  0
  6 17  2  0
 17 18  1  0
 17  2  1  0
 16  5  1  0
 16  9  1  0
  1 19  1  0
  1 20  1  0
  1 21  1  0
  3 22  1  0
  7 23  1  0
  8 24  1  0
 11 25  1  0
 11 26  1  0
 11 27  1  0
 13 28  1  0
 13 29  1  0
 13 30  1  0
 14 31  1  0
 18 32  1  0
 18 33  1  0
 18 34  1  0
M  END
$$$$

     RDKit          3D

 34 36  0  0  0  0  0  0  0  0999 V2000
   -2.7406    4.2792   -0.0575 C   0  0  0  0  0  0  0  0  0  0  0  0
   -1.8825    3.0592    0.1260 C   0  0  0  0  0  0  0  0  0  0  0  0
   -1.3383    2.7596    1.3752 C   0  0  0  0  0  0  0  0  0  0  0  0
   -0.5697    1.6948    1.6411 N   0  0  0  0  0  0  0  0  0  0  0  0
   -0.3087    0.8493    0.6598 C   0  0  0  0  0  0  0  0  0  0  0  0
   -0.8166    1.0422   -0.6591 C   0  0  0  0  0  0  0  0  0  0  0  0
   -0.5321    0.0730   -1.6539 C   0  0  0  0  0  0  0  0  0  0  0  0
    0.2211   -1.0226   -1.3821 C   0  0  0  0  0  0  0  0  0  0  0  0
    0.7575   -1.2627   -0.0890 C   0  0  0  0  0  0  0  0  0  0  0  0
    1.5415   -2.4156    0.2077 C   0  0  0  0  0  0  0  0  0  0  0  0
    1.8043   -3.4240   -0.8596 C   0  0  0  0  0  0  0  0  0  0  0  0
    2.0423   -2.5555    1.5006 C   0  0  0  0  0  0  0  0  0  0  0  0
    2.8831   -3.7388    1.8939 C   0  0  0  0  0  0  0  0  0  0  0  0
    1.7451   -1.5561    2.4281 C   0  0  0  0  0  0  0  0  0  0  0  0
    1.0069   -0.4698    2.1678 N   0  0  0  0  0  0  0  0  0  0  0  0
    0.5100   -0.3195    0.9487 C   0  0  0  0  0  0  0  0  0  0  0  0
   -1.6035    2.1975   -0.9312 C   0  0  0  0  0  0  0  0  0  0  0  0
   -2.1052    2.4472   -2.3149 C   0  0  0  0  0  0  0  0  0  0  0  0
   -2.9213    4.7643    0.9060 H   0  0  0  0  0  0  0  0  0  0  0  0
   -2.2618    4.9910   -0.7200 H   0  0  0  0  0  0  0  0  0  0  0  0
   -3.6999    4.0161   -0.4948 H   0  0  0  0  0  0  0  0  0  0  0  0
   -1.5398    3.4214    2.2034 H   0  0  0  0  0  0  0  0  0  0  0  0
   -0.9244    0.2172   -2.6540 H   0  0  0  0  0  0  0  0  0  0  0  0
    0.4189   -1.7375   -2.1712 H   0  0  0  0  0  0  0  0  0  0  0  0
    2.3461   -2.9806   -1.6961 H   0  0  0  0  0  0  0  0  0  0  0  0
    2.3850   -4.2591   -0.4867 H   0  0  0  0  0  0  0  0  0  0  0  0
    0.8635   -3.8130   -1.2607 H   0  0  0  0  0  0  0  0  0  0  0  0
    3.7954   -3.7763    1.3055 H   0  0  0  0  0  0  0  0  0  0  0  0
    3.1552   -3.6752    2.9520 H   0  0  0  0  0  0  0  0  0  0  0  0
    2.3447   -4.6662    1.7267 H   0  0  0  0  0  0  0  0  0  0  0  0
    2.1235   -1.6482    3.4360 H   0  0  0  0  0  0  0  0  0  0  0  0
   -1.2854    2.4304   -3.0375 H   0  0  0  0  0  0  0  0  0  0  0  0
   -2.6027    3.4075   -2.3944 H   0  0  0  0  0  0  0  0  0  0  0  0
   -2.8118    1.6708   -2.6158 H   0  0  0  0  0  0  0  0  0  0  0  0
  1  2  1  0
  2  3  2  0
  3  4  1  0
  4  5  2  0
  5  6  1  0
  6  7  1  0
  7  8  2  0
  8  9  1  0
  9 10  2  0
 10 11  1  0
 10 12  1  0
 12 13  1  0
 12 14  2  0
 14 15  1  0
 15 16  2  0
  6 17  2  0
 17 18  1  0
 17  2  1  0
 16  5  1  0
 16  9  1  0
  1 19  1  0
  1 20  1  0
  1 21  1  0
  3 22  1  0
  7 23  1  0
  8 24  1  0
 11 25  1  0
 11 26  1  0
 11 27  1  0
 13 28  1  0
 13 29  1  0
 13 30  1  0
 14 31  1  0
 18 32  1  0
 18 33  1  0
 18 34  1  0
M  END
$$$$

     RDKit          3D

 34 36  0  0  0  0  0  0  0  0999 V2000
   -1.0439    1.2983    4.7898 C   0  0  0  0  0  0  0  0  0  0  0  0
   -0.7345    0.7393    3.4265 C   0  0  0  0  0  0  0  0  0  0  0  0
   -0.6848   -0.6356    3.2150 C   0  0  0  0  0  0  0  0  0  0  0  0
   -0.4238   -1.2162    2.0386 N   0  0  0  0  0  0  0  0  0  0  0  0
   -0.2008   -0.4430    0.9883 C   0  0  0  0  0  0  0  0  0  0  0  0
   -0.2265    0.9836    1.0746 C   0  0  0  0  0  0  0  0  0  0  0  0
    0.0153    1.7407   -0.1010 C   0  0  0  0  0  0  0  0  0  0  0  0
    0.2622    1.1474   -1.2982 C   0  0  0  0  0  0  0  0  0  0  0  0
    0.3067   -0.2635   -1.4384 C   0  0  0  0  0  0  0  0  0  0  0  0
    0.5757   -0.8931   -2.6875 C   0  0  0  0  0  0  0  0  0  0  0  0
    0.8422   -0.0579   -3.8948 C   0  0  0  0  0  0  0  0  0  0  0  0
    0.5808   -2.2840   -2.7282 C   0  0  0  0  0  0  0  0  0  0  0  0
    0.8378   -3.0316   -4.0067 C   0  0  0  0  0  0  0  0  0  0  0  0
    0.3425   -2.9740   -1.5394 C   0  0  0  0  0  0  0  0  0  0  0  0
    0.1040   -2.3995   -0.3537 N   0  0  0  0  0  0  0  0  0  0  0  0
    0.0746   -1.0782   -0.2920 C   0  0  0  0  0  0  0  0  0  0  0  0
   -0.5002    1.5820    2.3378 C   0  0  0  0  0  0  0  0  0  0  0  0
   -0.5243    3.0589    2.5455 C   0  0  0  0  0  0  0  0  0  0  0  0
   -1.9718    1.8613    4.7689 H   0  0  0  0  0  0  0  0  0  0  0  0
   -0.2575    1.9626    5.1254 H   0  0  0  0  0  0  0  0  0  0  0  0
   -1.1489    0.4918    5.5137 H   0  0  0  0  0  0  0  0  0  0  0  0
   -0.8613   -1.2973    4.0481 H   0  0  0  0  0  0  0  0  0  0  0  0
    0.0047    2.8188   -0.0431 H   0  0  0  0  0  0  0  0  0  0  0  0
    0.4305    1.7666   -2.1702 H   0  0  0  0  0  0  0  0  0  0  0  0
   -0.0267    0.5530   -4.1446 H   0  0  0  0  0  0  0  0  0  0  0  0
    1.6714    0.6289   -3.7143 H   0  0  0  0  0  0  0  0  0  0  0  0
    1.0915   -0.6655   -4.7561 H   0  0  0  0  0  0  0  0  0  0  0  0
    0.7665   -4.1089   -3.8347 H   0  0  0  0  0  0  0  0  0  0  0  0
    1.8287   -2.8090   -4.3915 H   0  0  0  0  0  0  0  0  0  0  0  0
    0.1186   -2.7527   -4.7700 H   0  0  0  0  0  0  0  0  0  0  0  0
    0.3508   -4.0525   -1.5536 H   0  0  0  0  0  0  0  0  0  0  0  0
   -0.5351    3.6003    1.6070 H   0  0  0  0  0  0  0  0  0  0  0  0
    0.3455    3.3786    3.1221 H   0  0  0  0  0  0  0  0  0  0  0  0
   -1.4103    3.3502    3.1166 H   0  0  0  0  0  0  0  0  0  0  0  0
  1  2  1  0
  2  3  2  0
  3  4  1  0
  4  5  2  0
  5  6  1  0
  6  7  1  0
  7  8  2  0
  8  9  1  0
  9 10  2  0
 10 11  1  0
 10 12  1  0
 12 13  1  0
 12 14  2  0
 14 15  1  0
 15 16  2  0
  6 17  2  0
 17 18  1  0
 17  2  1  0
 16  5  1  0
 16  9  1  0
  1 19  1  0
  1 20  1  0
  1 21  1  0
  3 22  1  0
  7 23  1  0
  8 24  1  0
 11 25  1  0
 11 26  1  0
 11 27  1  0
 13 28  1  0
 13 29  1  0
 13 30  1  0
 14 31  1  0
 18 32  1  0
 18 33  1  0
 18 34  1  0
M  END
$$$$

     RDKit          3D

 34 36  0  0  0  0  0  0  0  0999 V2000
    2.0351   -4.2463   -1.9391 C   0  0  0  0  0  0  0  0  0  0  0  0
    1.2906   -3.0311   -1.4635 C   0  0  0  0  0  0  0  0  0  0  0  0
    0.0217   -2.7365   -1.9624 C   0  0  0  0  0  0  0  0  0  0  0  0
   -0.7190   -1.6801   -1.5975 N   0  0  0  0  0  0  0  0  0  0  0  0
   -0.2185   -0.8432   -0.7036 C   0  0  0  0  0  0  0  0  0  0  0  0
    1.0668   -1.0395   -0.1187 C   0  0  0  0  0  0  0  0  0  0  0  0
    1.5326   -0.1100    0.8461 C   0  0  0  0  0  0  0  0  0  0  0  0
    0.7956    0.9723    1.2123 C   0  0  0  0  0  0  0  0  0  0  0  0
   -0.4813    1.2333    0.6503 C   0  0  0  0  0  0  0  0  0  0  0  0
   -1.2636    2.3715    1.0002 C   0  0  0  0  0  0  0  0  0  0  0  0
   -0.8108    3.4005    1.9776 C   0  0  0  0  0  0  0  0  0  0  0  0
   -2.5145    2.5202    0.3972 C   0  0  0  0  0  0  0  0  0  0  0  0
   -3.3914    3.7010    0.7150 C   0  0  0  0  0  0  0  0  0  0  0  0
   -2.9253    1.5494   -0.5106 C   0  0  0  0  0  0  0  0  0  0  0  0
   -2.2041    0.4792   -0.8582 N   0  0  0  0  0  0  0  0  0  0  0  0
   -1.0113    0.3132   -0.3080 C   0  0  0  0  0  0  0  0  0  0  0  0
    1.8396   -2.1662   -0.5214 C   0  0  0  0  0  0  0  0  0  0  0  0
    3.1965   -2.3847    0.0603 C   0  0  0  0  0  0  0  0  0  0  0  0
    1.4425   -4.7907   -2.6789 H   0  0  0  0  0  0  0  0  0  0  0  0
    2.2515   -4.9171   -1.1127 H   0  0  0  0  0  0  0  0  0  0  0  0
    2.9794   -3.9664   -2.3919 H   0  0  0  0  0  0  0  0  0  0  0  0
   -0.4108   -3.3948   -2.7005 H   0  0  0  0  0  0  0  0  0  0  0  0
    2.5024   -0.2726    1.2995 H   0  0  0  0  0  0  0  0  0  0  0  0
    1.1933    1.6500    1.9530 H   0  0  0  0  0  0  0  0  0  0  0  0
    0.1815    3.1926    2.3546 H   0  0  0  0  0  0  0  0  0  0  0  0
   -1.4960    3.4507    2.8254 H   0  0  0  0  0  0  0  0  0  0  0  0
   -0.8095    4.3896    1.5144 H   0  0  0  0  0  0  0  0  0  0  0  0
   -2.8988    4.6278    0.4515 H   0  0  0  0  0  0  0  0  0  0  0  0
   -3.6184    3.7378    1.7723 H   0  0  0  0  0  0  0  0  0  0  0  0
   -4.3261    3.6359    0.1578 H   0  0  0  0  0  0  0  0  0  0  0  0
   -3.8923    1.6478   -0.9796 H   0  0  0  0  0  0  0  0  0  0  0  0
    3.6524   -3.2940   -0.3115 H   0  0  0  0  0  0  0  0  0  0  0  0
    3.1486   -2.4497    1.1486 H   0  0  0  0  0  0  0  0  0  0  0  0
    3.8613   -1.5497   -0.1782 H   0  0  0  0  0  0  0  0  0  0  0  0
  1  2  1  0
  2  3  2  0
  3  4  1  0
  4  5  2  0
  5  6  1  0
  6  7  1  0
  7  8  2  0
  8  9  1  0
  9 10  2  0
 10 11  1  0
 10 12  1  0
 12 13  1  0
 12 14  2  0
 14 15  1  0
 15 16  2  0
  6 17  2  0
 17 18  1  0
 17  2  1  0
 16  5  1  0
 16  9  1  0
  1 19  1  0
  1 20  1  0
  1 21  1  0
  3 22  1  0
  7 23  1  0
  8 24  1  0
 11 25  1  0
 11 26  1  0
 11 27  1  0
 13 28  1  0
 13 29  1  0
 13 30  1  0
 14 31  1  0
 18 32  1  0
 18 33  1  0
 18 34  1  0
M  END
$$$$

     RDKit          3D

 34 36  0  0  0  0  0  0  0  0999 V2000
    3.7471    1.1542   -3.2196 C   0  0  0  0  0  0  0  0  0  0  0  0
    2.7406    0.8867   -2.1335 C   0  0  0  0  0  0  0  0  0  0  0  0
    2.9762    1.3039   -0.8250 C   0  0  0  0  0  0  0  0  0  0  0  0
    2.1347    1.1184    0.1963 N   0  0  0  0  0  0  0  0  0  0  0  0
    0.9916    0.4913   -0.0328 C   0  0  0  0  0  0  0  0  0  0  0  0
    0.6288    0.0252   -1.3341 C   0  0  0  0  0  0  0  0  0  0  0  0
   -0.6335   -0.6010   -1.5061 C   0  0  0  0  0  0  0  0  0  0  0  0
   -1.4826   -0.7963   -0.4682 C   0  0  0  0  0  0  0  0  0  0  0  0
   -1.1668   -0.3699    0.8483 C   0  0  0  0  0  0  0  0  0  0  0  0
   -2.0531   -0.5694    1.9437 C   0  0  0  0  0  0  0  0  0  0  0  0
   -3.3755   -1.2205    1.7184 C   0  0  0  0  0  0  0  0  0  0  0  0
   -1.6452   -0.1381    3.2038 C   0  0  0  0  0  0  0  0  0  0  0  0
   -2.5044   -0.3393    4.4206 C   0  0  0  0  0  0  0  0  0  0  0  0
   -0.4048    0.4902    3.3080 C   0  0  0  0  0  0  0  0  0  0  0  0
    0.4392    0.6932    2.2863 N   0  0  0  0  0  0  0  0  0  0  0  0
    0.0794    0.2813    1.0817 C   0  0  0  0  0  0  0  0  0  0  0  0
    1.5473    0.2152   -2.4051 C   0  0  0  0  0  0  0  0  0  0  0  0
    1.2607   -0.2563   -3.7929 C   0  0  0  0  0  0  0  0  0  0  0  0
    4.5470    1.7950   -2.8444 H   0  0  0  0  0  0  0  0  0  0  0  0
    4.1830    0.2274   -3.5708 H   0  0  0  0  0  0  0  0  0  0  0  0
    3.2823    1.6446   -4.0699 H   0  0  0  0  0  0  0  0  0  0  0  0
    3.9043    1.8089   -0.5967 H   0  0  0  0  0  0  0  0  0  0  0  0
   -0.9291   -0.9202   -2.4953 H   0  0  0  0  0  0  0  0  0  0  0  0
   -2.4337   -1.2867   -0.6443 H   0  0  0  0  0  0  0  0  0  0  0  0
   -3.9377   -0.6884    0.9435 H   0  0  0  0  0  0  0  0  0  0  0  0
   -3.2569   -2.2476    1.3717 H   0  0  0  0  0  0  0  0  0  0  0  0
   -3.9734   -1.2339    2.6211 H   0  0  0  0  0  0  0  0  0  0  0  0
   -3.4428    0.1944    4.3225 H   0  0  0  0  0  0  0  0  0  0  0  0
   -1.9901    0.0249    5.3155 H   0  0  0  0  0  0  0  0  0  0  0  0
   -2.7364   -1.3922    4.5623 H   0  0  0  0  0  0  0  0  0  0  0  0
   -0.0783    0.8388    4.2766 H   0  0  0  0  0  0  0  0  0  0  0  0
    0.5714   -1.0963   -3.7977 H   0  0  0  0  0  0  0  0  0  0  0  0
    0.8329    0.5443   -4.3972 H   0  0  0  0  0  0  0  0  0  0  0  0
    2.1778   -0.5817   -4.2868 H   0  0  0  0  0  0  0  0  0  0  0  0
  1  2  1  0
  2  3  2  0
  3  4  1  0
  4  5  2  0
  5  6  1  0
  6  7  1  0
  7  8  2  0
  8  9  1  0
  9 10  2  0
 10 11  1  0
 10 12  1  0
 12 13  1  0
 12 14  2  0
 14 15  1  0
 15 16  2  0
  6 17  2  0
 17 18  1  0
 17  2  1  0
 16  5  1  0
 16  9  1  0
  1 19  1  0
  1 20  1  0
  1 21  1  0
  3 22  1  0
  7 23  1  0
  8 24  1  0
 11 25  1  0
 11 26  1  0
 11 27  1  0
 13 28  1  0
 13 29  1  0
 13 30  1  0
 14 31  1  0
 18 32  1  0
 18 33  1  0
 18 34  1  0
M  END
$$$$
