
     RDKit          3D

 32 35  0  0  0  0  0  0  0  0999 V2000
    2.0370    5.2584    0.6690 C   0  0  0  0  0  0  0  0  0  0  0  0
    1.5491    4.7767    1.9043 C   0  0  0  0  0  0  0  0  0  0  0  0
    0.9928    3.5138    2.0067 C   0  0  0  0  0  0  0  0  0  0  0  0
    0.9057    2.6873    0.8516 C   0  0  0  0  0  0  0  0  0  0  0  0
    0.3415    1.4528    0.9817 N   0  0  0  0  0  0  0  0  0  0  0  0
    0.2684    0.6902   -0.0843 C   0  0  0  0  0  0  0  0  0  0  0  0
   -0.3433   -0.6615    0.0800 C   0  0  0  0  0  0  0  0  0  0  0  0
   -0.8523   -1.0406    1.3253 C   0  0  0  0  0  0  0  0  0  0  0  0
   -1.3940   -2.2797    1.4881 C   0  0  0  0  0  0  0  0  0  0  0  0
   -1.4282   -3.1650    0.3836 C   0  0  0  0  0  0  0  0  0  0  0  0
   -1.9541   -4.4781    0.4535 C   0  0  0  0  0  0  0  0  0  0  0  0
   -1.9551   -5.2899   -0.6565 C   0  0  0  0  0  0  0  0  0  0  0  0
   -1.4386   -4.8178   -1.8810 C   0  0  0  0  0  0  0  0  0  0  0  0
   -0.9178   -3.5374   -1.9877 C   0  0  0  0  0  0  0  0  0  0  0  0
   -0.8972   -2.6902   -0.8489 C   0  0  0  0  0  0  0  0  0  0  0  0
   -0.3705   -1.4459   -0.9830 N   0  0  0  0  0  0  0  0  0  0  0  0
    0.7364    1.0875   -1.3502 C   0  0  0  0  0  0  0  0  0  0  0  0
    1.2978    2.3160   -1.5079 C   0  0  0  0  0  0  0  0  0  0  0  0
    1.3988    3.1734   -0.3892 C   0  0  0  0  0  0  0  0  0  0  0  0
    1.9630    4.4756   -0.4533 C   0  0  0  0  0  0  0  0  0  0  0  0
    2.4679    6.2479    0.6076 H   0  0  0  0  0  0  0  0  0  0  0  0
    1.6096    5.3936    2.7817 H   0  0  0  0  0  0  0  0  0  0  0  0
    0.6180    3.1324    2.9411 H   0  0  0  0  0  0  0  0  0  0  0  0
   -0.8070   -0.3430    2.1438 H   0  0  0  0  0  0  0  0  0  0  0  0
   -1.7957   -2.6098    2.4292 H   0  0  0  0  0  0  0  0  0  0  0  0
   -2.3486   -4.8208    1.3945 H   0  0  0  0  0  0  0  0  0  0  0  0
   -2.3548   -6.2924   -0.5890 H   0  0  0  0  0  0  0  0  0  0  0  0
   -1.4427   -5.4544   -2.7476 H   0  0  0  0  0  0  0  0  0  0  0  0
   -0.5265   -3.1599   -2.9177 H   0  0  0  0  0  0  0  0  0  0  0  0
    0.6464    0.4076   -2.1773 H   0  0  0  0  0  0  0  0  0  0  0  0
    1.6700    2.6532   -2.4627 H   0  0  0  0  0  0  0  0  0  0  0  0
    2.3240    4.8200   -1.4050 H   0  0  0  0  0  0  0  0  0  0  0  0
  1  2  2  0
  2  3  1  0
  3  4  2  0
  4  5  1  0
  5  6  2  0
  6  7  1  0
  7  8  2  0
  8  9  1  0
  9 10  2  0
 10 11  1  0
 11 12  2  0
 12 13  1  0
 13 14  2  0
 14 15  1  0
 15 16  2  0
  6 17  1  0
 17 18  2  0
 18 19  1  0
 19 20  2  0
 20  1  1  0
 19  4  1  0
 16  7  1  0
 15 10  1  0
  1 21  1  0
  2 22  1  0
  3 23  1  0
  8 24  1  0
  9 25  1  0
 11 26  1  0
 12 27  1  0
 13 28  1  0
 14 29  1  0
 17 30  1  0
 18 31  1  0
 20 32  1  0
M  END
$$$$

     RDKit          3D

 32 35  0  0  0  0  0  0  0  0999 V2000
   -3.3037   -3.0482    3.4717 C   0  0  0  0  0  0  0  0  0  0  0  0
   -4.1043   -2.4003    2.5050 C   0  0  0  0  0  0  0  0  0  0  0  0
   -3.5334   -1.5956    1.5330 C   0  0  0  0  0  0  0  0  0  0  0  0
   -2.1226   -1.4114    1.5079 C   0  0  0  0  0  0  0  0  0  0  0  0
   -1.5916   -0.6107    0.5410 N   0  0  0  0  0  0  0  0  0  0  0  0
   -0.2905   -0.4386    0.5250 C   0  0  0  0  0  0  0  0  0  0  0  0
    0.2732    0.4410   -0.5384 C   0  0  0  0  0  0  0  0  0  0  0  0
   -0.5871    1.0543   -1.4524 C   0  0  0  0  0  0  0  0  0  0  0  0
   -0.0788    1.8601   -2.4255 C   0  0  0  0  0  0  0  0  0  0  0  0
    1.3213    2.0630   -2.4869 C   0  0  0  0  0  0  0  0  0  0  0  0
    1.9469    2.8806   -3.4600 C   0  0  0  0  0  0  0  0  0  0  0  0
    3.3136    3.0378   -3.4687 C   0  0  0  0  0  0  0  0  0  0  0  0
    4.1082    2.3856   -2.5038 C   0  0  0  0  0  0  0  0  0  0  0  0
    3.5317    1.5752   -1.5370 C   0  0  0  0  0  0  0  0  0  0  0  0
    2.1224    1.3984   -1.5145 C   0  0  0  0  0  0  0  0  0  0  0  0
    1.5861    0.5999   -0.5572 N   0  0  0  0  0  0  0  0  0  0  0  0
    0.5787   -1.0359    1.4539 C   0  0  0  0  0  0  0  0  0  0  0  0
    0.0753   -1.8380    2.4305 C   0  0  0  0  0  0  0  0  0  0  0  0
   -1.3197   -2.0570    2.4877 C   0  0  0  0  0  0  0  0  0  0  0  0
   -1.9430   -2.8824    3.4630 C   0  0  0  0  0  0  0  0  0  0  0  0
   -3.7647   -3.6762    4.2226 H   0  0  0  0  0  0  0  0  0  0  0  0
   -5.1714   -2.5287    2.5174 H   0  0  0  0  0  0  0  0  0  0  0  0
   -4.1298   -1.0935    0.7904 H   0  0  0  0  0  0  0  0  0  0  0  0
   -1.6437    0.8761   -1.3745 H   0  0  0  0  0  0  0  0  0  0  0  0
   -0.7080    2.3453   -3.1506 H   0  0  0  0  0  0  0  0  0  0  0  0
    1.3261    3.3687   -4.1909 H   0  0  0  0  0  0  0  0  0  0  0  0
    3.7773    3.6664   -4.2169 H   0  0  0  0  0  0  0  0  0  0  0  0
    5.1758    2.5124   -2.5105 H   0  0  0  0  0  0  0  0  0  0  0  0
    4.1240    1.0727   -0.7889 H   0  0  0  0  0  0  0  0  0  0  0  0
    1.6320   -0.8462    1.3766 H   0  0  0  0  0  0  0  0  0  0  0  0
    0.7138   -2.3068    3.1628 H   0  0  0  0  0  0  0  0  0  0  0  0
   -1.3138   -3.3678    4.1878 H   0  0  0  0  0  0  0  0  0  0  0  0
  1  2  2  0
  2  3  1  0
  3  4  2  0
  4  5  1  0
  5  6  2  0
  6  7  1  0
  7  8  2  0
  8  9  1  0
  9 10  2  0
 10 11  1  0
 11 12  2  0
 12 13  1  0
 13 14  2  0
 14 15  1  0
 15 16  2  0
  6 17  1  0
 17 18  2  0
 18 19  1  0
 19 20  2  0
 20  1  1  0
 19  4  1  0
 16  7  1  0
 15 10  1  0
  1 21  1  0
  2 22  1  0
  3 23  1  0
  8 24  1  0
  9 25  1  0
 11 26  1  0
 12 27  1  0
 13 28  1  0
 14 29  1  0
 17 30  1  0
 18 31  1  0
 20 32  1  0
M  END
$$$$

     RDKit          3D

 32 35  0  0  0  0  0  0  0  0999 V2000
    4.4187   -2.8886    2.0893 C   0  0  0  0  0  0  0  0  0  0  0  0
    4.7685   -1.5285    1.9331 C   0  0  0  0  0  0  0  0  0  0  0  0
    3.8547   -0.6091    1.4461 C   0  0  0  0  0  0  0  0  0  0  0  0
    2.5461   -1.0395    1.0894 C   0  0  0  0  0  0  0  0  0  0  0  0
    1.6713   -0.1116    0.6092 N   0  0  0  0  0  0  0  0  0  0  0  0
    0.4679   -0.5106    0.2756 C   0  0  0  0  0  0  0  0  0  0  0  0
   -0.4716    0.5230   -0.2501 C   0  0  0  0  0  0  0  0  0  0  0  0
   -0.0662    1.8600   -0.3058 C   0  0  0  0  0  0  0  0  0  0  0  0
   -0.9194    2.8085   -0.7817 C   0  0  0  0  0  0  0  0  0  0  0  0
   -2.2093    2.4161   -1.2148 C   0  0  0  0  0  0  0  0  0  0  0  0
   -3.1698    3.3235   -1.7238 C   0  0  0  0  0  0  0  0  0  0  0  0
   -4.4093    2.8789   -2.1211 C   0  0  0  0  0  0  0  0  0  0  0  0
   -4.7381    1.5109   -2.0237 C   0  0  0  0  0  0  0  0  0  0  0  0
   -3.8211    0.5920   -1.5336 C   0  0  0  0  0  0  0  0  0  0  0  0
   -2.5378    1.0337   -1.1192 C   0  0  0  0  0  0  0  0  0  0  0  0
   -1.6626    0.1102   -0.6442 N   0  0  0  0  0  0  0  0  0  0  0  0
    0.0381   -1.8457    0.3896 C   0  0  0  0  0  0  0  0  0  0  0  0
    0.8914   -2.7914    0.8650 C   0  0  0  0  0  0  0  0  0  0  0  0
    2.2003   -2.4095    1.2384 C   0  0  0  0  0  0  0  0  0  0  0  0
    3.1630   -3.3204    1.7501 C   0  0  0  0  0  0  0  0  0  0  0  0
    5.1446   -3.5912    2.4757 H   0  0  0  0  0  0  0  0  0  0  0  0
    5.7572   -1.1992    2.1969 H   0  0  0  0  0  0  0  0  0  0  0  0
    4.1012    0.4321    1.3273 H   0  0  0  0  0  0  0  0  0  0  0  0
    0.9190    2.1244    0.0388 H   0  0  0  0  0  0  0  0  0  0  0  0
   -0.6449    3.8471   -0.8402 H   0  0  0  0  0  0  0  0  0  0  0  0
   -2.9039    4.3650   -1.7911 H   0  0  0  0  0  0  0  0  0  0  0  0
   -5.1340    3.5829   -2.5085 H   0  0  0  0  0  0  0  0  0  0  0  0
   -5.7094    1.1672   -2.3282 H   0  0  0  0  0  0  0  0  0  0  0  0
   -4.0549   -0.4562   -1.4590 H   0  0  0  0  0  0  0  0  0  0  0  0
   -0.9633   -2.0987    0.0951 H   0  0  0  0  0  0  0  0  0  0  0  0
    0.5999   -3.8258    0.9655 H   0  0  0  0  0  0  0  0  0  0  0  0
    2.8736   -4.3496    1.8602 H   0  0  0  0  0  0  0  0  0  0  0  0
  1  2  2  0
  2  3  1  0
  3  4  2  0
  4  5  1  0
  5  6  2  0
  6  7  1  0
  7  8  2  0
  8  9  1  0
  9 10  2  0
 10 11  1  0
 11 12  2  0
 12 13  1  0
 13 14  2  0
 14 15  1  0
 15 16  2  0
  6 17  1  0
 17 18  2  0
 18 19  1  0
 19 20  2  0
 20  1  1  0
 19  4  1  0
 16  7  1  0
 15 10  1  0
  1 21  1  0
  2 22  1  0
  3 23  1  0
  8 24  1  0
  9 25  1  0
 11 26  1  0
 12 27  1  0
 13 28  1  0
 14 29  1  0
 17 30  1  0
 18 31  1  0
 20 32  1  0
M  END
$$$$

     RDKit          3D

 32 35  0  0  0  0  0  0  0  0999 V2000
    2.0278   -5.1793    1.1471 C   0  0  0  0  0  0  0  0  0  0  0  0
    2.5031   -4.2613    2.1101 C   0  0  0  0  0  0  0  0  0  0  0  0
    2.1470   -2.9243    2.0541 C   0  0  0  0  0  0  0  0  0  0  0  0
    1.2850   -2.4684    1.0183 C   0  0  0  0  0  0  0  0  0  0  0  0
    0.9418   -1.1497    0.9976 N   0  0  0  0  0  0  0  0  0  0  0  0
    0.1564   -0.7251    0.0376 C   0  0  0  0  0  0  0  0  0  0  0  0
   -0.2056    0.7214    0.0319 C   0  0  0  0  0  0  0  0  0  0  0  0
    0.2147    1.5491    1.0769 C   0  0  0  0  0  0  0  0  0  0  0  0
   -0.1090    2.8728    1.0671 C   0  0  0  0  0  0  0  0  0  0  0  0
   -0.8645    3.3867   -0.0148 C   0  0  0  0  0  0  0  0  0  0  0  0
   -1.2441    4.7469   -0.1239 C   0  0  0  0  0  0  0  0  0  0  0  0
   -1.9719    5.1840   -1.2062 C   0  0  0  0  0  0  0  0  0  0  0  0
   -2.3536    4.2772   -2.2171 C   0  0  0  0  0  0  0  0  0  0  0  0
   -2.0070    2.9373   -2.1406 C   0  0  0  0  0  0  0  0  0  0  0  0
   -1.2528    2.4698   -1.0327 C   0  0  0  0  0  0  0  0  0  0  0  0
   -0.9234    1.1553   -0.9891 N   0  0  0  0  0  0  0  0  0  0  0  0
   -0.3456   -1.5645   -0.9733 C   0  0  0  0  0  0  0  0  0  0  0  0
   -0.0223   -2.8853   -0.9755 C   0  0  0  0  0  0  0  0  0  0  0  0
    0.8167   -3.3917    0.0437 C   0  0  0  0  0  0  0  0  0  0  0  0
    1.2053   -4.7553    0.1361 C   0  0  0  0  0  0  0  0  0  0  0  0
    2.3176   -6.2197    1.2057 H   0  0  0  0  0  0  0  0  0  0  0  0
    3.1511   -4.6000    2.8975 H   0  0  0  0  0  0  0  0  0  0  0  0
    2.5067   -2.2069    2.7722 H   0  0  0  0  0  0  0  0  0  0  0  0
    0.7904    1.1288    1.8833 H   0  0  0  0  0  0  0  0  0  0  0  0
    0.1942    3.5406    1.8532 H   0  0  0  0  0  0  0  0  0  0  0  0
   -0.9519    5.4223    0.6616 H   0  0  0  0  0  0  0  0  0  0  0  0
   -2.2506    6.2256   -1.2805 H   0  0  0  0  0  0  0  0  0  0  0  0
   -2.9185    4.6214   -3.0645 H   0  0  0  0  0  0  0  0  0  0  0  0
   -2.2944    2.2320   -2.9031 H   0  0  0  0  0  0  0  0  0  0  0  0
   -0.9833   -1.1458   -1.7309 H   0  0  0  0  0  0  0  0  0  0  0  0
   -0.3913   -3.5564   -1.7348 H   0  0  0  0  0  0  0  0  0  0  0  0
    0.8321   -5.4375   -0.6070 H   0  0  0  0  0  0  0  0  0  0  0  0
  1  2  2  0
  2  3  1  0
  3  4  2  0
  4  5  1  0
  5  6  2  0
  6  7  1  0
  7  8  2  0
  8  9  1  0
  9 10  2  0
 10 11  1  0
 11 12  2  0
 12 13  1  0
 13 14  2  0
 14 15  1  0
 15 16  2  0
  6 17  1  0
 17 18  2  0
 18 19  1  0
 19 20  2  0
 20  1  1  0
 19  4  1  0
 16  7  1  0
 15 10  1  0
  1 21  1  0
  2 22  1  0
  3 23  1  0
  8 24  1  0
  9 25  1  0
 11 26  1  0
 12 27  1  0
 13 28  1  0
 14 29  1  0
 17 30  1  0
 18 31  1  0
 20 32  1  0
M  END
$$$$

     RDKit          3D

 32 35  0  0  0  0  0  0  0  0999 V2000
   -1.1907    2.0302   -5.1669 C   0  0  0  0  0  0  0  0  0  0  0  0
   -0.3029    0.9362   -5.2745 C   0  0  0  0  0  0  0  0  0  0  0  0
    0.1248    0.2559   -4.1474 C   0  0  0  0  0  0  0  0  0  0  0  0
   -0.3258    0.6676   -2.8626 C   0  0  0  0  0  0  0  0  0  0  0  0
    0.1286   -0.0137   -1.7732 N   0  0  0  0  0  0  0  0  0  0  0  0
   -0.2827    0.3668   -0.5892 C   0  0  0  0  0  0  0  0  0  0  0  0
    0.2361   -0.3917    0.5869 C   0  0  0  0  0  0  0  0  0  0  0  0
    1.0950   -1.4762    0.3803 C   0  0  0  0  0  0  0  0  0  0  0  0
    1.5773   -2.1724    1.4465 C   0  0  0  0  0  0  0  0  0  0  0  0
    1.1965   -1.7789    2.7517 C   0  0  0  0  0  0  0  0  0  0  0  0
    1.6425   -2.4376    3.9239 C   0  0  0  0  0  0  0  0  0  0  0  0
    1.2413   -2.0063    5.1664 C   0  0  0  0  0  0  0  0  0  0  0  0
    0.3786   -0.8969    5.2849 C   0  0  0  0  0  0  0  0  0  0  0  0
   -0.0803   -0.2279    4.1603 C   0  0  0  0  0  0  0  0  0  0  0  0
    0.3186   -0.6632    2.8686 C   0  0  0  0  0  0  0  0  0  0  0  0
   -0.1477    0.0104    1.7856 N   0  0  0  0  0  0  0  0  0  0  0  0
   -1.1714    1.4384   -0.3874 C   0  0  0  0  0  0  0  0  0  0  0  0
   -1.6388    2.1373   -1.4584 C   0  0  0  0  0  0  0  0  0  0  0  0
   -1.2176    1.7677   -2.7561 C   0  0  0  0  0  0  0  0  0  0  0  0
   -1.6398    2.4355   -3.9373 C   0  0  0  0  0  0  0  0  0  0  0  0
   -1.5154    2.5508   -6.0575 H   0  0  0  0  0  0  0  0  0  0  0  0
    0.0481    0.6238   -6.2397 H   0  0  0  0  0  0  0  0  0  0  0  0
    0.7990   -0.5810   -4.2085 H   0  0  0  0  0  0  0  0  0  0  0  0
    1.3600   -1.7501   -0.6253 H   0  0  0  0  0  0  0  0  0  0  0  0
    2.2365   -3.0145    1.3274 H   0  0  0  0  0  0  0  0  0  0  0  0
    2.3014   -3.2806    3.8131 H   0  0  0  0  0  0  0  0  0  0  0  0
    1.5916   -2.5156    6.0541 H   0  0  0  0  0  0  0  0  0  0  0  0
    0.0704   -0.5580    6.2580 H   0  0  0  0  0  0  0  0  0  0  0  0
   -0.7340    0.6241    4.2409 H   0  0  0  0  0  0  0  0  0  0  0  0
   -1.4647    1.6886    0.6125 H   0  0  0  0  0  0  0  0  0  0  0  0
   -2.3171    2.9675   -1.3445 H   0  0  0  0  0  0  0  0  0  0  0  0
   -2.3173    3.2636   -3.8326 H   0  0  0  0  0  0  0  0  0  0  0  0
  1  2  2  0
  2  3  1  0
  3  4  2  0
  4  5  1  0
  5  6  2  0
  6  7  1  0
  7  8  2  0
  8  9  1  0
  9 10  2  0
 10 11  1  0
 11 12  2  0
 12 13  1  0
 13 14  2  0
 14 15  1  0
 15 16  2  0
  6 17  1  0
 17 18  2  0
 18 19  1  0
 19 20  2  0
 20  1  1  0
 19  4  1  0
 16  7  1  0
 15 10  1  0
  1 21  1  0
  2 22  1  0
  3 23  1  0
  8 24  1  0
  9 25  1  0
 11 26  1  0
 12 27  1  0
 13 28  1  0
 14 29  1  0
 17 30  1  0
 18 31  1  0
 20 32  1  0
M  END
$$$$

     RDKit          3D

 32 35  0  0  0  0  0  0  0  0999 V2000
    3.6308    3.3307    2.8220 C   0  0  0  0  0  0  0  0  0  0  0  0
    3.4437    3.8352    1.5159 C   0  0  0  0  0  0  0  0  0  0  0  0
    2.5818    3.2104    0.6308 C   0  0  0  0  0  0  0  0  0  0  0  0
    1.8850    2.0385    1.0345 C   0  0  0  0  0  0  0  0  0  0  0  0
    1.0511    1.4449    0.1354 N   0  0  0  0  0  0  0  0  0  0  0  0
    0.4200    0.3567    0.4996 C   0  0  0  0  0  0  0  0  0  0  0  0
   -0.4739   -0.2890   -0.5050 C   0  0  0  0  0  0  0  0  0  0  0  0
   -0.6463    0.2931   -1.7644 C   0  0  0  0  0  0  0  0  0  0  0  0
   -1.4553   -0.3041   -2.6838 C   0  0  0  0  0  0  0  0  0  0  0  0
   -2.1079   -1.5141   -2.3400 C   0  0  0  0  0  0  0  0  0  0  0  0
   -2.9619   -2.2197   -3.2228 C   0  0  0  0  0  0  0  0  0  0  0  0
   -3.5634   -3.3930   -2.8280 C   0  0  0  0  0  0  0  0  0  0  0  0
   -3.3401   -3.9033   -1.5325 C   0  0  0  0  0  0  0  0  0  0  0  0
   -2.5163   -3.2385   -0.6387 C   0  0  0  0  0  0  0  0  0  0  0  0
   -1.8813   -2.0299   -1.0320 C   0  0  0  0  0  0  0  0  0  0  0  0
   -1.0710   -1.4106   -0.1377 N   0  0  0  0  0  0  0  0  0  0  0  0
    0.5492   -0.2183    1.7766 C   0  0  0  0  0  0  0  0  0  0  0  0
    1.3676    0.3591    2.6977 C   0  0  0  0  0  0  0  0  0  0  0  0
    2.0795    1.5280    2.3455 C   0  0  0  0  0  0  0  0  0  0  0  0
    2.9639    2.2041    3.2289 C   0  0  0  0  0  0  0  0  0  0  0  0
    4.3047    3.8312    3.5035 H   0  0  0  0  0  0  0  0  0  0  0  0
    3.9724    4.7156    1.2005 H   0  0  0  0  0  0  0  0  0  0  0  0
    2.4222    3.5772   -0.3671 H   0  0  0  0  0  0  0  0  0  0  0  0
   -0.1320    1.2122   -1.9944 H   0  0  0  0  0  0  0  0  0  0  0  0
   -1.6137    0.1176   -3.6602 H   0  0  0  0  0  0  0  0  0  0  0  0
   -3.1249   -1.8144   -4.2058 H   0  0  0  0  0  0  0  0  0  0  0  0
   -4.2105   -3.9239   -3.5144 H   0  0  0  0  0  0  0  0  0  0  0  0
   -3.8116   -4.8220   -1.2297 H   0  0  0  0  0  0  0  0  0  0  0  0
   -2.3376   -3.6118    0.3565 H   0  0  0  0  0  0  0  0  0  0  0  0
   -0.0027   -1.1099    2.0056 H   0  0  0  0  0  0  0  0  0  0  0  0
    1.4900   -0.0552    3.6854 H   0  0  0  0  0  0  0  0  0  0  0  0
    3.0883    1.8031    4.2180 H   0  0  0  0  0  0  0  0  0  0  0  0
  1  2  2  0
  2  3  1  0
  3  4  2  0
  4  5  1  0
  5  6  2  0
  6  7  1  0
  7  8  2  0
  8  9  1  0
  9 10  2  0
 10 11  1  0
 11 12  2  0
 12 13  1  0
 13 14  2  0
 14 15  1  0
 15 16  2  0
  6 17  1  0
 17 18  2  0
 18 19  1  0
 19 20  2  0
 20  1  1  0
 19  4  1  0
 16  7  1  0
 15 10  1  0
  1 21  1  0
  2 22  1  0
  3 23  1  0
  8 24  1  0
  9 25  1  0
 11 26  1  0
 12 27  1  0
 13 28  1  0
 14 29  1  0
 17 30  1  0
 18 31  1  0
 20 32  1  0
M  END
$$$$

     RDKit          3D

 32 35  0  0  0  0  0  0  0  0999 V2000
    2.9574   -0.2164    4.8381 C   0  0  0  0  0  0  0  0  0  0  0  0
    1.5765   -0.1272    5.1248 C   0  0  0  0  0  0  0  0  0  0  0  0
    0.6403   -0.0858    4.1070 C   0  0  0  0  0  0  0  0  0  0  0  0
    1.0729   -0.1269    2.7524 C   0  0  0  0  0  0  0  0  0  0  0  0
    0.1258   -0.0791    1.7735 N   0  0  0  0  0  0  0  0  0  0  0  0
    0.5230   -0.0995    0.5252 C   0  0  0  0  0  0  0  0  0  0  0  0
   -0.5327   -0.0217   -0.5271 C   0  0  0  0  0  0  0  0  0  0  0  0
   -1.8804   -0.1139   -0.1639 C   0  0  0  0  0  0  0  0  0  0  0  0
   -2.8482   -0.0640   -1.1217 C   0  0  0  0  0  0  0  0  0  0  0  0
   -2.4653    0.1009   -2.4743 C   0  0  0  0  0  0  0  0  0  0  0  0
   -3.3896    0.1613   -3.5452 C   0  0  0  0  0  0  0  0  0  0  0  0
   -2.9511    0.3448   -4.8358 C   0  0  0  0  0  0  0  0  0  0  0  0
   -1.5726    0.4713   -5.1067 C   0  0  0  0  0  0  0  0  0  0  0  0
   -0.6374    0.4048   -4.0849 C   0  0  0  0  0  0  0  0  0  0  0  0
   -1.0718    0.2090   -2.7478 C   0  0  0  0  0  0  0  0  0  0  0  0
   -0.1284    0.1370   -1.7734 N   0  0  0  0  0  0  0  0  0  0  0  0
    1.8764   -0.1848    0.1478 C   0  0  0  0  0  0  0  0  0  0  0  0
    2.8419   -0.2403    1.1049 C   0  0  0  0  0  0  0  0  0  0  0  0
    2.4624   -0.2105    2.4657 C   0  0  0  0  0  0  0  0  0  0  0  0
    3.3916   -0.2610    3.5397 C   0  0  0  0  0  0  0  0  0  0  0  0
    3.6747   -0.2490    5.6478 H   0  0  0  0  0  0  0  0  0  0  0  0
    1.2438   -0.0890    6.1461 H   0  0  0  0  0  0  0  0  0  0  0  0
   -0.4150   -0.0217    4.3079 H   0  0  0  0  0  0  0  0  0  0  0  0
   -2.1359   -0.2220    0.8748 H   0  0  0  0  0  0  0  0  0  0  0  0
   -3.8943   -0.1387   -0.8810 H   0  0  0  0  0  0  0  0  0  0  0  0
   -4.4368    0.0604   -3.3200 H   0  0  0  0  0  0  0  0  0  0  0  0
   -3.6668    0.3885   -5.6458 H   0  0  0  0  0  0  0  0  0  0  0  0
   -1.2327    0.6254   -6.1146 H   0  0  0  0  0  0  0  0  0  0  0  0
    0.4196    0.4959   -4.2719 H   0  0  0  0  0  0  0  0  0  0  0  0
    2.1268   -0.2069   -0.8955 H   0  0  0  0  0  0  0  0  0  0  0  0
    3.8889   -0.3063    0.8537 H   0  0  0  0  0  0  0  0  0  0  0  0
    4.4371   -0.3347    3.3001 H   0  0  0  0  0  0  0  0  0  0  0  0
  1  2  2  0
  2  3  1  0
  3  4  2  0
  4  5  1  0
  5  6  2  0
  6  7  1  0
  7  8  2  0
  8  9  1  0
  9 10  2  0
 10 11  1  0
 11 12  2  0
 12 13  1  0
 13 14  2  0
 14 15  1  0
 15 16  2  0
  6 17  1  0
 17 18  2  0
 18 19  1  0
 19 20  2  0
 20  1  1  0
 19  4  1  0
 16  7  1  0
 15 10  1  0
  1 21  1  0
  2 22  1  0
  3 23  1  0
  8 24  1  0
  9 25  1  0
 11 26  1  0
 12 27  1  0
 13 28  1  0
 14 29  1  0
 17 30  1  0
 18 31  1  0
 20 32  1  0
M  END
$$$$

     RDKit          3D

 32 35  0  0  0  0  0  0  0  0999 V2000
   -0.1687   -1.0487   -5.5767 C   0  0  0  0  0  0  0  0  0  0  0  0
   -0.9883   -1.9746   -4.8932 C   0  0  0  0  0  0  0  0  0  0  0  0
   -1.1309   -1.9177   -3.5185 C   0  0  0  0  0  0  0  0  0  0  0  0
   -0.4443   -0.9141   -2.7791 C   0  0  0  0  0  0  0  0  0  0  0  0
   -0.6115   -0.8810   -1.4267 N   0  0  0  0  0  0  0  0  0  0  0  0
    0.0355    0.0339   -0.7458 C   0  0  0  0  0  0  0  0  0  0  0  0
   -0.1470    0.0444    0.7352 C   0  0  0  0  0  0  0  0  0  0  0  0
   -1.1231   -0.7691    1.3162 C   0  0  0  0  0  0  0  0  0  0  0  0
   -1.3023   -0.7560    2.6673 C   0  0  0  0  0  0  0  0  0  0  0  0
   -0.4727    0.0726    3.4605 C   0  0  0  0  0  0  0  0  0  0  0  0
   -0.5677    0.1491    4.8720 C   0  0  0  0  0  0  0  0  0  0  0  0
    0.2845    0.9564    5.5883 C   0  0  0  0  0  0  0  0  0  0  0  0
    1.2630    1.7220    4.9210 C   0  0  0  0  0  0  0  0  0  0  0  0
    1.3754    1.6856    3.5394 C   0  0  0  0  0  0  0  0  0  0  0  0
    0.5042    0.8568    2.7830 C   0  0  0  0  0  0  0  0  0  0  0  0
    0.6446    0.8416    1.4330 N   0  0  0  0  0  0  0  0  0  0  0  0
    0.8804    0.9866   -1.3414 C   0  0  0  0  0  0  0  0  0  0  0  0
    1.0528    0.9860   -2.6913 C   0  0  0  0  0  0  0  0  0  0  0  0
    0.3858    0.0113   -3.4673 C   0  0  0  0  0  0  0  0  0  0  0  0
    0.5056   -0.0799   -4.8804 C   0  0  0  0  0  0  0  0  0  0  0  0
   -0.0709   -1.1077   -6.6525 H   0  0  0  0  0  0  0  0  0  0  0  0
   -1.5135   -2.7340   -5.4441 H   0  0  0  0  0  0  0  0  0  0  0  0
   -1.7514   -2.6160   -2.9827 H   0  0  0  0  0  0  0  0  0  0  0  0
   -1.7243   -1.3993    0.6848 H   0  0  0  0  0  0  0  0  0  0  0  0
   -2.0492   -1.3598    3.1509 H   0  0  0  0  0  0  0  0  0  0  0  0
   -1.3209   -0.4412    5.3640 H   0  0  0  0  0  0  0  0  0  0  0  0
    0.2038    1.0013    6.6664 H   0  0  0  0  0  0  0  0  0  0  0  0
    1.9373    2.3413    5.4849 H   0  0  0  0  0  0  0  0  0  0  0  0
    2.1157    2.2663    3.0159 H   0  0  0  0  0  0  0  0  0  0  0  0
    1.3788    1.7039   -0.7169 H   0  0  0  0  0  0  0  0  0  0  0  0
    1.6823    1.7084   -3.1857 H   0  0  0  0  0  0  0  0  0  0  0  0
    1.1370    0.6316   -5.3803 H   0  0  0  0  0  0  0  0  0  0  0  0
  1  2  2  0
  2  3  1  0
  3  4  2  0
  4  5  1  0
  5  6  2  0
  6  7  1  0
  7  8  2  0
  8  9  1  0
  9 10  2  0
 10 11  1  0
 11 12  2  0
 12 13  1  0
 13 14  2  0
 14 15  1  0
 15 16  2  0
  6 17  1  0
 17 18  2  0
 18 19  1  0
 19 20  2  0
 20  1  1  0
 19  4  1  0
 16  7  1  0
 15 10  1  0
  1 21  1  0
  2 22  1  0
  3 23  1  0
  8 24  1  0
  9 25  1  0
 11 26  1  0
 12 27  1  0
 13 28  1  0
 14 29  1  0
 17 30  1  0
 18 31  1  0
 20 32  1  0
M  END
$$$$

     RDKit          3D

 32 35  0  0  0  0  0  0  0  0999 V2000
   -2.7253    4.5157   -2.1011 C   0  0  0  0  0  0  0  0  0  0  0  0
   -1.9568    3.9043   -3.1184 C   0  0  0  0  0  0  0  0  0  0  0  0
   -1.1989    2.7762   -2.8576 C   0  0  0  0  0  0  0  0  0  0  0  0
   -1.1911    2.2244   -1.5478 C   0  0  0  0  0  0  0  0  0  0  0  0
   -0.4337    1.1145   -1.3254 N   0  0  0  0  0  0  0  0  0  0  0  0
   -0.4238    0.6015   -0.1212 C   0  0  0  0  0  0  0  0  0  0  0  0
    0.4078   -0.6176    0.0969 C   0  0  0  0  0  0  0  0  0  0  0  0
    1.0735   -1.2071   -0.9825 C   0  0  0  0  0  0  0  0  0  0  0  0
    1.8248   -2.3258   -0.7878 C   0  0  0  0  0  0  0  0  0  0  0  0
    1.9260   -2.8678    0.5169 C   0  0  0  0  0  0  0  0  0  0  0  0
    2.6814   -4.0258    0.8266 C   0  0  0  0  0  0  0  0  0  0  0  0
    2.7505   -4.4933    2.1184 C   0  0  0  0  0  0  0  0  0  0  0  0
    2.0640   -3.8238    3.1523 C   0  0  0  0  0  0  0  0  0  0  0  0
    1.3035   -2.6944    2.8852 C   0  0  0  0  0  0  0  0  0  0  0  0
    1.2223   -2.1958    1.5583 C   0  0  0  0  0  0  0  0  0  0  0  0
    0.4714   -1.0887    1.3310 N   0  0  0  0  0  0  0  0  0  0  0  0
   -1.1536    1.1440    0.9521 C   0  0  0  0  0  0  0  0  0  0  0  0
   -1.9196    2.2517    0.7579 C   0  0  0  0  0  0  0  0  0  0  0  0
   -1.9617    2.8415   -0.5254 C   0  0  0  0  0  0  0  0  0  0  0  0
   -2.7281    3.9977   -0.8327 C   0  0  0  0  0  0  0  0  0  0  0  0
   -3.3129    5.3954   -2.3245 H   0  0  0  0  0  0  0  0  0  0  0  0
   -1.9610    4.3145   -4.1110 H   0  0  0  0  0  0  0  0  0  0  0  0
   -0.6100    2.2956   -3.6193 H   0  0  0  0  0  0  0  0  0  0  0  0
    0.9792   -0.7669   -1.9607 H   0  0  0  0  0  0  0  0  0  0  0  0
    2.3440   -2.8090   -1.5972 H   0  0  0  0  0  0  0  0  0  0  0  0
    3.1971   -4.5281    0.0255 H   0  0  0  0  0  0  0  0  0  0  0  0
    3.3342   -5.3777    2.3400 H   0  0  0  0  0  0  0  0  0  0  0  0
    2.1251   -4.1843    4.1622 H   0  0  0  0  0  0  0  0  0  0  0  0
    0.7681   -2.1793    3.6648 H   0  0  0  0  0  0  0  0  0  0  0  0
   -1.0946    0.6721    1.9121 H   0  0  0  0  0  0  0  0  0  0  0  0
   -2.4947    2.6917    1.5562 H   0  0  0  0  0  0  0  0  0  0  0  0
   -3.3071    4.4445   -0.0438 H   0  0  0  0  0  0  0  0  0  0  0  0
  1  2  2  0
  2  3  1  0
  3  4  2  0
  4  5  1  0
  5  6  2  0
  6  7  1  0
  7  8  2  0
  8  9  1  0
  9 10  2  0
 10 11  1  0
 11 12  2  0
 12 13  1  0
 13 14  2  0
 14 15  1  0
 15 16  2  0
  6 17  1  0
 17 18  2  0
 18 19  1  0
 19 20  2  0
 20  1  1  0
 19  4  1  0
 16  7  1  0
 15 10  1  0
  1 21  1  0
  2 22  1  0
  3 23  1  0
  8 24  1  0
  9 25  1  0
 11 26  1  0
 12 27  1  0
 13 28  1  0
 14 29  1  0
 17 30  1  0
 18 31  1  0
 20 32  1  0
M  END
$$$$

     RDKit          3D

 32 35  0  0  0  0  0  0  0  0999 V2000
   -5.4103   -1.7124   -0.1614 C   0  0  0  0  0  0  0  0  0  0  0  0
   -4.6883   -2.3135   -1.2167 C   0  0  0  0  0  0  0  0  0  0  0  0
   -3.3417   -2.0503   -1.3944 C   0  0  0  0  0  0  0  0  0  0  0  0
   -2.6714   -1.1666   -0.5024 C   0  0  0  0  0  0  0  0  0  0  0  0
   -1.3483   -0.9202   -0.7092 N   0  0  0  0  0  0  0  0  0  0  0  0
   -0.7267   -0.1173    0.1221 C   0  0  0  0  0  0  0  0  0  0  0  0
    0.7244    0.1267   -0.1231 C   0  0  0  0  0  0  0  0  0  0  0  0
    1.3562   -0.5084   -1.1968 C   0  0  0  0  0  0  0  0  0  0  0  0
    2.6817   -0.2962   -1.4254 C   0  0  0  0  0  0  0  0  0  0  0  0
    3.3962    0.5691   -0.5625 C   0  0  0  0  0  0  0  0  0  0  0  0
    4.7775    0.8481   -0.7084 C   0  0  0  0  0  0  0  0  0  0  0  0
    5.4145    1.7047    0.1588 C   0  0  0  0  0  0  0  0  0  0  0  0
    4.6967    2.3136    1.2089 C   0  0  0  0  0  0  0  0  0  0  0  0
    3.3440    2.0626    1.3852 C   0  0  0  0  0  0  0  0  0  0  0  0
    2.6710    1.1772    0.5018 C   0  0  0  0  0  0  0  0  0  0  0  0
    1.3482    0.9467    0.7063 N   0  0  0  0  0  0  0  0  0  0  0  0
   -1.3626    0.5077    1.2093 C   0  0  0  0  0  0  0  0  0  0  0  0
   -2.6880    0.2900    1.4309 C   0  0  0  0  0  0  0  0  0  0  0  0
   -3.3975   -0.5708    0.5628 C   0  0  0  0  0  0  0  0  0  0  0  0
   -4.7804   -0.8630    0.7094 C   0  0  0  0  0  0  0  0  0  0  0  0
   -6.4635   -1.9246   -0.0393 H   0  0  0  0  0  0  0  0  0  0  0  0
   -5.1879   -2.9836   -1.8910 H   0  0  0  0  0  0  0  0  0  0  0  0
   -2.7756   -2.4951   -2.1945 H   0  0  0  0  0  0  0  0  0  0  0  0
    0.7824   -1.1597   -1.8308 H   0  0  0  0  0  0  0  0  0  0  0  0
    3.2035   -0.7615   -2.2441 H   0  0  0  0  0  0  0  0  0  0  0  0
    5.3117    0.3766   -1.5154 H   0  0  0  0  0  0  0  0  0  0  0  0
    6.4703    1.9076    0.0355 H   0  0  0  0  0  0  0  0  0  0  0  0
    5.1974    2.9835    1.8834 H   0  0  0  0  0  0  0  0  0  0  0  0
    2.7783    2.5238    2.1783 H   0  0  0  0  0  0  0  0  0  0  0  0
   -0.7887    1.1511    1.8509 H   0  0  0  0  0  0  0  0  0  0  0  0
   -3.2118    0.7506    2.2530 H   0  0  0  0  0  0  0  0  0  0  0  0
   -5.3113   -0.3962    1.5186 H   0  0  0  0  0  0  0  0  0  0  0  0
  1  2  2  0
  2  3  1  0
  3  4  2  0
  4  5  1  0
  5  6  2  0
  6  7  1  0
  7  8  2  0
  8  9  1  0
  9 10  2  0
 10 11  1  0
 11 12  2  0
 12 13  1  0
 13 14  2  0
 14 15  1  0
 15 16  2  0
  6 17  1  0
 17 18  2  0
 18 19  1  0
 19 20  2  0
 20  1  1  0
 19  4  1  0
 16  7  1  0
 15 10  1  0
  1 21  1  0
  2 22  1  0
  3 23  1  0
  8 24  1  0
  9 25  1  0
 11 26  1  0
 12 27  1  0
 13 28  1  0
 14 29  1  0
 17 30  1  0
 18 31  1  0
 20 32  1  0
M  END
$$$$

     RDKit          3D

 32 35  0  0  0  0  0  0  0  0999 V2000
   -5.2881   -1.2363   -1.6642 C   0  0  0  0  0  0  0  0  0  0  0  0
   -4.3866   -1.4683   -2.7277 C   0  0  0  0  0  0  0  0  0  0  0  0
   -3.0301   -1.2453   -2.5721 C   0  0  0  0  0  0  0  0  0  0  0  0
   -2.5338   -0.7695   -1.3267 C   0  0  0  0  0  0  0  0  0  0  0  0
   -1.1922   -0.5601   -1.2082 N   0  0  0  0  0  0  0  0  0  0  0  0
   -0.7351   -0.1091   -0.0661 C   0  0  0  0  0  0  0  0  0  0  0  0
    0.7363    0.1150    0.0430 C   0  0  0  0  0  0  0  0  0  0  0  0
    1.5634   -0.1655   -1.0485 C   0  0  0  0  0  0  0  0  0  0  0  0
    2.9080    0.0257   -0.9461 C   0  0  0  0  0  0  0  0  0  0  0  0
    3.4441    0.5164    0.2684 C   0  0  0  0  0  0  0  0  0  0  0  0
    4.8270    0.7480    0.4713 C   0  0  0  0  0  0  0  0  0  0  0  0
    5.2859    1.2281    1.6751 C   0  0  0  0  0  0  0  0  0  0  0  0
    4.3796    1.4932    2.7222 C   0  0  0  0  0  0  0  0  0  0  0  0
    3.0186    1.2722    2.5619 C   0  0  0  0  0  0  0  0  0  0  0  0
    2.5268    0.7778    1.3253 C   0  0  0  0  0  0  0  0  0  0  0  0
    1.1905    0.5731    1.1965 N   0  0  0  0  0  0  0  0  0  0  0  0
   -1.5598    0.1645    1.0401 C   0  0  0  0  0  0  0  0  0  0  0  0
   -2.9014   -0.0423    0.9505 C   0  0  0  0  0  0  0  0  0  0  0  0
   -3.4427   -0.5254   -0.2622 C   0  0  0  0  0  0  0  0  0  0  0  0
   -4.8271   -0.7750   -0.4581 C   0  0  0  0  0  0  0  0  0  0  0  0
   -6.3440   -1.4236   -1.8016 H   0  0  0  0  0  0  0  0  0  0  0  0
   -4.7535   -1.8251   -3.6731 H   0  0  0  0  0  0  0  0  0  0  0  0
   -2.3260   -1.4204   -3.3678 H   0  0  0  0  0  0  0  0  0  0  0  0
    1.1265   -0.5290   -1.9630 H   0  0  0  0  0  0  0  0  0  0  0  0
    3.5762   -0.1885   -1.7603 H   0  0  0  0  0  0  0  0  0  0  0  0
    5.5029    0.5345   -0.3378 H   0  0  0  0  0  0  0  0  0  0  0  0
    6.3449    1.4037    1.8172 H   0  0  0  0  0  0  0  0  0  0  0  0
    4.7392    1.8695    3.6627 H   0  0  0  0  0  0  0  0  0  0  0  0
    2.3178    1.4681    3.3564 H   0  0  0  0  0  0  0  0  0  0  0  0
   -1.1142    0.5318    1.9453 H   0  0  0  0  0  0  0  0  0  0  0  0
   -3.5610    0.1514    1.7811 H   0  0  0  0  0  0  0  0  0  0  0  0
   -5.4923   -0.5896    0.3664 H   0  0  0  0  0  0  0  0  0  0  0  0
  1  2  2  0
  2  3  1  0
  3  4  2  0
  4  5  1  0
  5  6  2  0
  6  7  1  0
  7  8  2  0
  8  9  1  0
  9 10  2  0
 10 11  1  0
 11 12  2  0
 12 13  1  0
 13 14  2  0
 14 15  1  0
 15 16  2  0
  6 17  1  0
 17 18  2  0
 18 19  1  0
 19 20  2  0
 20  1  1  0
 19  4  1  0
 16  7  1  0
 15 10  1  0
  1 21  1  0
  2 22  1  0
  3 23  1  0
  8 24  1  0
  9 25  1  0
 11 26  1  0
 12 27  1  0
 13 28  1  0
 14 29  1  0
 17 30  1  0
 18 31  1  0
 20 32  1  0
M  END
$$$$

     RDKit          3D

 32 35  0  0  0  0  0  0  0  0999 V2000
   -0.1903   -0.3878   -5.6594 C   0  0  0  0  0  0  0  0  0  0  0  0
   -0.0173   -1.6728   -5.0987 C   0  0  0  0  0  0  0  0  0  0  0  0
    0.0519   -1.8463   -3.7272 C   0  0  0  0  0  0  0  0  0  0  0  0
   -0.0436   -0.7151   -2.8686 C   0  0  0  0  0  0  0  0  0  0  0  0
    0.0342   -0.9206   -1.5237 N   0  0  0  0  0  0  0  0  0  0  0  0
   -0.0371    0.1243   -0.7338 C   0  0  0  0  0  0  0  0  0  0  0  0
    0.0450   -0.1281    0.7342 C   0  0  0  0  0  0  0  0  0  0  0  0
    0.1528   -1.4413    1.2033 C   0  0  0  0  0  0  0  0  0  0  0  0
    0.2139   -1.6791    2.5433 C   0  0  0  0  0  0  0  0  0  0  0  0
    0.1783   -0.5815    3.4376 C   0  0  0  0  0  0  0  0  0  0  0  0
    0.2480   -0.7182    4.8460 C   0  0  0  0  0  0  0  0  0  0  0  0
    0.2082    0.3899    5.6594 C   0  0  0  0  0  0  0  0  0  0  0  0
    0.0908    1.6787    5.0985 C   0  0  0  0  0  0  0  0  0  0  0  0
    0.0145    1.8520    3.7247 C   0  0  0  0  0  0  0  0  0  0  0  0
    0.0637    0.7199    2.8703 C   0  0  0  0  0  0  0  0  0  0  0  0
    0.0013    0.9245    1.5301 N   0  0  0  0  0  0  0  0  0  0  0  0
   -0.1927    1.4409   -1.2061 C   0  0  0  0  0  0  0  0  0  0  0  0
   -0.2878    1.6711   -2.5429 C   0  0  0  0  0  0  0  0  0  0  0  0
   -0.2111    0.5767   -3.4355 C   0  0  0  0  0  0  0  0  0  0  0  0
   -0.2887    0.7114   -4.8473 C   0  0  0  0  0  0  0  0  0  0  0  0
   -0.2471   -0.2722   -6.7337 H   0  0  0  0  0  0  0  0  0  0  0  0
    0.0630   -2.5305   -5.7411 H   0  0  0  0  0  0  0  0  0  0  0  0
    0.1840   -2.8173   -3.2832 H   0  0  0  0  0  0  0  0  0  0  0  0
    0.1797   -2.2500    0.4925 H   0  0  0  0  0  0  0  0  0  0  0  0
    0.2876   -2.6748    2.9449 H   0  0  0  0  0  0  0  0  0  0  0  0
    0.3336   -1.7084    5.2592 H   0  0  0  0  0  0  0  0  0  0  0  0
    0.2685    0.2706    6.7338 H   0  0  0  0  0  0  0  0  0  0  0  0
    0.0609    2.5436    5.7363 H   0  0  0  0  0  0  0  0  0  0  0  0
   -0.0817    2.8299    3.2811 H   0  0  0  0  0  0  0  0  0  0  0  0
   -0.2375    2.2475   -0.4964 H   0  0  0  0  0  0  0  0  0  0  0  0
   -0.4192    2.6642   -2.9463 H   0  0  0  0  0  0  0  0  0  0  0  0
   -0.4259    1.6987   -5.2514 H   0  0  0  0  0  0  0  0  0  0  0  0
  1  2  2  0
  2  3  1  0
  3  4  2  0
  4  5  1  0
  5  6  2  0
  6  7  1  0
  7  8  2  0
  8  9  1  0
  9 10  2  0
 10 11  1  0
 11 12  2  0
 12 13  1  0
 13 14  2  0
 14 15  1  0
 15 16  2  0
  6 17  1  0
 17 18  2  0
 18 19  1  0
 19 20  2  0
 20  1  1  0
 19  4  1  0
 16  7  1  0
 15 10  1  0
  1 21  1  0
  2 22  1  0
  3 23  1  0
  8 24  1  0
  9 25  1  0
 11 26  1  0
 12 27  1  0
 13 28  1  0
 14 29  1  0
 17 30  1  0
 18 31  1  0
 20 32  1  0
M  END
$$$$
