
     RDKit          3D

 25 27  0  0  0  0  0  0  0  0999 V2000
    1.8153   -0.7930   -2.3411 C   0  0  0  0  0  0  0  0  0  0  0  0
    0.9532   -0.5561   -1.1313 C   0  0  0  0  0  0  0  0  0  0  0  0
    0.7562   -1.5199   -0.2101 C   0  0  0  0  0  0  0  0  0  0  0  0
   -0.0713   -1.3393    0.9269 C   0  0  0  0  0  0  0  0  0  0  0  0
   -0.2885   -2.3581    1.8801 C   0  0  0  0  0  0  0  0  0  0  0  0
   -1.1056   -2.1150    2.9584 C   0  0  0  0  0  0  0  0  0  0  0  0
   -1.7023   -0.8480    3.0828 C   0  0  0  0  0  0  0  0  0  0  0  0
   -1.5201    0.1423    2.1956 N   0  0  0  0  0  0  0  0  0  0  0  0
   -0.7238   -0.0866    1.1472 C   0  0  0  0  0  0  0  0  0  0  0  0
   -0.5040    0.9826    0.1891 C   0  0  0  0  0  0  0  0  0  0  0  0
   -1.0882    2.1528    0.4167 N   0  0  0  0  0  0  0  0  0  0  0  0
   -0.8976    3.1395   -0.4667 C   0  0  0  0  0  0  0  0  0  0  0  0
   -0.1098    2.9993   -1.6181 C   0  0  0  0  0  0  0  0  0  0  0  0
    0.5012    1.7919   -1.8584 C   0  0  0  0  0  0  0  0  0  0  0  0
    0.3275    0.7333   -0.9522 C   0  0  0  0  0  0  0  0  0  0  0  0
    1.2369   -0.6605   -3.2606 H   0  0  0  0  0  0  0  0  0  0  0  0
    2.2218   -1.8138   -2.3338 H   0  0  0  0  0  0  0  0  0  0  0  0
    2.6584   -0.0976   -2.3715 H   0  0  0  0  0  0  0  0  0  0  0  0
    1.2398   -2.4881   -0.3306 H   0  0  0  0  0  0  0  0  0  0  0  0
    0.1971   -3.3052    1.7408 H   0  0  0  0  0  0  0  0  0  0  0  0
   -1.2884   -2.8739    3.7030 H   0  0  0  0  0  0  0  0  0  0  0  0
   -2.3528   -0.6435    3.9173 H   0  0  0  0  0  0  0  0  0  0  0  0
   -1.3834    4.0794   -0.2543 H   0  0  0  0  0  0  0  0  0  0  0  0
    0.0126    3.8300   -2.2987 H   0  0  0  0  0  0  0  0  0  0  0  0
    1.1156    1.6475   -2.7305 H   0  0  0  0  0  0  0  0  0  0  0  0
  1  2  1  0
  2  3  2  0
  3  4  1  0
  4  5  2  0
  5  6  1  0
  6  7  2  0
  7  8  1  0
  8  9  2  0
  9 10  1  0
 10 11  2  0
 11 12  1  0
 12 13  2  0
 13 14  1  0
 14 15  2  0
 15  2  1  0
  9  4  1  0
 15 10  1  0
  1 16  1  0
  1 17  1  0
  1 18  1  0
  3 19  1  0
  5 20  1  0
  6 21  1  0
  7 22  1  0
 12 23  1  0
 13 24  1  0
 14 25  1  0
M  END
$$$$

     RDKit          3D

 25 27  0  0  0  0  0  0  0  0999 V2000
   -2.7270    0.2712   -1.3845 C   0  0  0  0  0  0  0  0  0  0  0  0
   -1.3410    0.2589   -0.8010 C   0  0  0  0  0  0  0  0  0  0  0  0
   -0.3808    1.0763   -1.2745 C   0  0  0  0  0  0  0  0  0  0  0  0
    0.9428    1.0798   -0.7668 C   0  0  0  0  0  0  0  0  0  0  0  0
    1.9517    1.9210   -1.2848 C   0  0  0  0  0  0  0  0  0  0  0  0
    3.2136    1.8782   -0.7386 C   0  0  0  0  0  0  0  0  0  0  0  0
    3.4624    0.9953    0.3267 C   0  0  0  0  0  0  0  0  0  0  0  0
    2.5320    0.1709    0.8408 N   0  0  0  0  0  0  0  0  0  0  0  0
    1.3059    0.2069    0.3073 C   0  0  0  0  0  0  0  0  0  0  0  0
    0.2893   -0.6768    0.8473 C   0  0  0  0  0  0  0  0  0  0  0  0
    0.6384   -1.4859    1.8412 N   0  0  0  0  0  0  0  0  0  0  0  0
   -0.2885   -2.3085    2.3402 C   0  0  0  0  0  0  0  0  0  0  0  0
   -1.6093   -2.3520    1.8675 C   0  0  0  0  0  0  0  0  0  0  0  0
   -1.9745   -1.5187    0.8371 C   0  0  0  0  0  0  0  0  0  0  0  0
   -1.0279   -0.6431    0.2827 C   0  0  0  0  0  0  0  0  0  0  0  0
   -3.4672    0.5600   -0.6359 H   0  0  0  0  0  0  0  0  0  0  0  0
   -2.9988   -0.7128   -1.7693 H   0  0  0  0  0  0  0  0  0  0  0  0
   -2.7872    0.9900   -2.2137 H   0  0  0  0  0  0  0  0  0  0  0  0
   -0.6106    1.7635   -2.0875 H   0  0  0  0  0  0  0  0  0  0  0  0
    1.7052    2.5783   -2.0969 H   0  0  0  0  0  0  0  0  0  0  0  0
    4.0037    2.5125   -1.1091 H   0  0  0  0  0  0  0  0  0  0  0  0
    4.4439    0.9568    0.7731 H   0  0  0  0  0  0  0  0  0  0  0  0
    0.0222   -2.9570    3.1454 H   0  0  0  0  0  0  0  0  0  0  0  0
   -2.3201   -3.0380    2.3056 H   0  0  0  0  0  0  0  0  0  0  0  0
   -2.9782   -1.5268    0.4477 H   0  0  0  0  0  0  0  0  0  0  0  0
  1  2  1  0
  2  3  2  0
  3  4  1  0
  4  5  2  0
  5  6  1  0
  6  7  2  0
  7  8  1  0
  8  9  2  0
  9 10  1  0
 10 11  2  0
 11 12  1  0
 12 13  2  0
 13 14  1  0
 14 15  2  0
 15  2  1  0
  9  4  1  0
 15 10  1  0
  1 16  1  0
  1 17  1  0
  1 18  1  0
  3 19  1  0
  5 20  1  0
  6 21  1  0
  7 22  1  0
 12 23  1  0
 13 24  1  0
 14 25  1  0
M  END
$$$$

     RDKit          3D

 25 27  0  0  0  0  0  0  0  0999 V2000
    0.5023   -2.4053    1.8333 C   0  0  0  0  0  0  0  0  0  0  0  0
    0.2949   -1.1321    1.0623 C   0  0  0  0  0  0  0  0  0  0  0  0
    0.4379    0.0708    1.6538 C   0  0  0  0  0  0  0  0  0  0  0  0
    0.2320    1.2921    0.9652 C   0  0  0  0  0  0  0  0  0  0  0  0
    0.3861    2.5526    1.5865 C   0  0  0  0  0  0  0  0  0  0  0  0
    0.1746    3.6987    0.8562 C   0  0  0  0  0  0  0  0  0  0  0  0
   -0.2039    3.5781   -0.4924 C   0  0  0  0  0  0  0  0  0  0  0  0
   -0.3717    2.3979   -1.1134 N   0  0  0  0  0  0  0  0  0  0  0  0
   -0.1501    1.2815   -0.4134 C   0  0  0  0  0  0  0  0  0  0  0  0
   -0.2957   -0.0000   -1.0820 C   0  0  0  0  0  0  0  0  0  0  0  0
   -0.6428    0.0038   -2.3641 N   0  0  0  0  0  0  0  0  0  0  0  0
   -0.7704   -1.1723   -2.9894 C   0  0  0  0  0  0  0  0  0  0  0  0
   -0.5584   -2.4033   -2.3522 C   0  0  0  0  0  0  0  0  0  0  0  0
   -0.2007   -2.4103   -1.0257 C   0  0  0  0  0  0  0  0  0  0  0  0
   -0.0632   -1.1981   -0.3341 C   0  0  0  0  0  0  0  0  0  0  0  0
    0.7470   -2.1843    2.8810 H   0  0  0  0  0  0  0  0  0  0  0  0
   -0.3990   -3.0211    1.8153 H   0  0  0  0  0  0  0  0  0  0  0  0
    1.3211   -2.9930    1.4108 H   0  0  0  0  0  0  0  0  0  0  0  0
    0.7155    0.1254    2.7060 H   0  0  0  0  0  0  0  0  0  0  0  0
    0.6754    2.5840    2.6212 H   0  0  0  0  0  0  0  0  0  0  0  0
    0.3015    4.6770    1.2951 H   0  0  0  0  0  0  0  0  0  0  0  0
   -0.3821    4.4662   -1.0798 H   0  0  0  0  0  0  0  0  0  0  0  0
   -1.0448   -1.1414   -4.0337 H   0  0  0  0  0  0  0  0  0  0  0  0
   -0.6806   -3.3285   -2.8979 H   0  0  0  0  0  0  0  0  0  0  0  0
   -0.0247   -3.3384   -0.5086 H   0  0  0  0  0  0  0  0  0  0  0  0
  1  2  1  0
  2  3  2  0
  3  4  1  0
  4  5  2  0
  5  6  1  0
  6  7  2  0
  7  8  1  0
  8  9  2  0
  9 10  1  0
 10 11  2  0
 11 12  1  0
 12 13  2  0
 13 14  1  0
 14 15  2  0
 15  2  1  0
  9  4  1  0
 15 10  1  0
  1 16  1  0
  1 17  1  0
  1 18  1  0
  3 19  1  0
  5 20  1  0
  6 21  1  0
  7 22  1  0
 12 23  1  0
 13 24  1  0
 14 25  1  0
M  END
$$$$

     RDKit          3D

 25 27  0  0  0  0  0  0  0  0999 V2000
    1.2438   -2.1505   -1.7997 C   0  0  0  0  0  0  0  0  0  0  0  0
    0.6453   -0.9953   -1.0453 C   0  0  0  0  0  0  0  0  0  0  0  0
    0.4238    0.1919   -1.6447 C   0  0  0  0  0  0  0  0  0  0  0  0
   -0.1450    1.3000   -0.9679 C   0  0  0  0  0  0  0  0  0  0  0  0
   -0.3588    2.5450   -1.6000 C   0  0  0  0  0  0  0  0  0  0  0  0
   -0.9240    3.5750   -0.8868 C   0  0  0  0  0  0  0  0  0  0  0  0
   -1.2739    3.3587    0.4577 C   0  0  0  0  0  0  0  0  0  0  0  0
   -1.0787    2.1910    1.0968 N   0  0  0  0  0  0  0  0  0  0  0  0
   -0.5254    1.1889    0.4076 C   0  0  0  0  0  0  0  0  0  0  0  0
   -0.3057   -0.0803    1.0767 C   0  0  0  0  0  0  0  0  0  0  0  0
   -0.6754   -0.1819    2.3493 N   0  0  0  0  0  0  0  0  0  0  0  0
   -0.4566   -1.3432    2.9794 C   0  0  0  0  0  0  0  0  0  0  0  0
    0.1340   -2.4541    2.3587 C   0  0  0  0  0  0  0  0  0  0  0  0
    0.5141   -2.3559    1.0419 C   0  0  0  0  0  0  0  0  0  0  0  0
    0.2955   -1.1562    0.3450 C   0  0  0  0  0  0  0  0  0  0  0  0
    0.5676   -3.0118   -1.7987 H   0  0  0  0  0  0  0  0  0  0  0  0
    2.1870   -2.4648   -1.3489 H   0  0  0  0  0  0  0  0  0  0  0  0
    1.4387   -1.8758   -2.8460 H   0  0  0  0  0  0  0  0  0  0  0  0
    0.6862    0.3214   -2.6937 H   0  0  0  0  0  0  0  0  0  0  0  0
   -0.0787    2.6537   -2.6316 H   0  0  0  0  0  0  0  0  0  0  0  0
   -1.1049    4.5360   -1.3432 H   0  0  0  0  0  0  0  0  0  0  0  0
   -1.7191    4.1561    1.0304 H   0  0  0  0  0  0  0  0  0  0  0  0
   -0.7667   -1.4020    4.0101 H   0  0  0  0  0  0  0  0  0  0  0  0
    0.2943   -3.3643    2.9173 H   0  0  0  0  0  0  0  0  0  0  0  0
    0.9825   -3.1815    0.5354 H   0  0  0  0  0  0  0  0  0  0  0  0
  1  2  1  0
  2  3  2  0
  3  4  1  0
  4  5  2  0
  5  6  1  0
  6  7  2  0
  7  8  1  0
  8  9  2  0
  9 10  1  0
 10 11  2  0
 11 12  1  0
 12 13  2  0
 13 14  1  0
 14 15  2  0
 15  2  1  0
  9  4  1  0
 15 10  1  0
  1 16  1  0
  1 17  1  0
  1 18  1  0
  3 19  1  0
  5 20  1  0
  6 21  1  0
  7 22  1  0
 12 23  1  0
 13 24  1  0
 14 25  1  0
M  END
$$$$

     RDKit          3D

 25 27  0  0  0  0  0  0  0  0999 V2000
    1.6971   -2.5297   -0.3291 C   0  0  0  0  0  0  0  0  0  0  0  0
    1.0029   -1.2038   -0.1906 C   0  0  0  0  0  0  0  0  0  0  0  0
    1.6800   -0.0473   -0.3307 C   0  0  0  0  0  0  0  0  0  0  0  0
    1.0603    1.2219   -0.2115 C   0  0  0  0  0  0  0  0  0  0  0  0
    1.7729    2.4337   -0.3425 C   0  0  0  0  0  0  0  0  0  0  0  0
    1.1013    3.6272   -0.2250 C   0  0  0  0  0  0  0  0  0  0  0  0
   -0.2825    3.6061    0.0181 C   0  0  0  0  0  0  0  0  0  0  0  0
   -0.9921    2.4732    0.1535 N   0  0  0  0  0  0  0  0  0  0  0  0
   -0.3445    1.3113    0.0534 C   0  0  0  0  0  0  0  0  0  0  0  0
   -1.0987    0.0817    0.2114 C   0  0  0  0  0  0  0  0  0  0  0  0
   -2.3997    0.1741    0.4686 N   0  0  0  0  0  0  0  0  0  0  0  0
   -3.1008   -0.9575    0.6075 C   0  0  0  0  0  0  0  0  0  0  0  0
   -2.5255   -2.2344    0.5176 C   0  0  0  0  0  0  0  0  0  0  0  0
   -1.1787   -2.3369    0.2623 C   0  0  0  0  0  0  0  0  0  0  0  0
   -0.4120   -1.1699    0.0952 C   0  0  0  0  0  0  0  0  0  0  0  0
    2.7609   -2.3797   -0.5672 H   0  0  0  0  0  0  0  0  0  0  0  0
    1.6330   -3.1078    0.5936 H   0  0  0  0  0  0  0  0  0  0  0  0
    1.2494   -3.1215   -1.1341 H   0  0  0  0  0  0  0  0  0  0  0  0
    2.7473   -0.0707   -0.5397 H   0  0  0  0  0  0  0  0  0  0  0  0
    2.8309    2.3947   -0.5292 H   0  0  0  0  0  0  0  0  0  0  0  0
    1.6154    4.5713   -0.3249 H   0  0  0  0  0  0  0  0  0  0  0  0
   -0.8252    4.5320    0.1103 H   0  0  0  0  0  0  0  0  0  0  0  0
   -4.1570   -0.8532    0.7978 H   0  0  0  0  0  0  0  0  0  0  0  0
   -3.1326   -3.1178    0.6482 H   0  0  0  0  0  0  0  0  0  0  0  0
   -0.7019   -3.2969    0.1869 H   0  0  0  0  0  0  0  0  0  0  0  0
  1  2  1  0
  2  3  2  0
  3  4  1  0
  4  5  2  0
  5  6  1  0
  6  7  2  0
  7  8  1  0
  8  9  2  0
  9 10  1  0
 10 11  2  0
 11 12  1  0
 12 13  2  0
 13 14  1  0
 14 15  2  0
 15  2  1  0
  9  4  1  0
 15 10  1  0
  1 16  1  0
  1 17  1  0
  1 18  1  0
  3 19  1  0
  5 20  1  0
  6 21  1  0
  7 22  1  0
 12 23  1  0
 13 24  1  0
 14 25  1  0
M  END
$$$$

     RDKit          3D

 25 27  0  0  0  0  0  0  0  0999 V2000
    2.2714   -2.0263    0.3699 C   0  0  0  0  0  0  0  0  0  0  0  0
    1.2771   -0.9133    0.1861 C   0  0  0  0  0  0  0  0  0  0  0  0
    1.6700    0.3675    0.0501 C   0  0  0  0  0  0  0  0  0  0  0  0
    0.7566    1.4344   -0.1496 C   0  0  0  0  0  0  0  0  0  0  0  0
    1.1779    2.7743   -0.3063 C   0  0  0  0  0  0  0  0  0  0  0  0
    0.2384    3.7595   -0.5042 C   0  0  0  0  0  0  0  0  0  0  0  0
   -1.1209    3.4035   -0.5392 C   0  0  0  0  0  0  0  0  0  0  0  0
   -1.5584    2.1417   -0.3844 N   0  0  0  0  0  0  0  0  0  0  0  0
   -0.6515    1.1809   -0.1962 C   0  0  0  0  0  0  0  0  0  0  0  0
   -1.1061   -0.1882   -0.0323 C   0  0  0  0  0  0  0  0  0  0  0  0
   -2.4153   -0.4172   -0.0581 N   0  0  0  0  0  0  0  0  0  0  0  0
   -2.8396   -1.6770    0.0973 C   0  0  0  0  0  0  0  0  0  0  0  0
   -1.9705   -2.7622    0.2878 C   0  0  0  0  0  0  0  0  0  0  0  0
   -0.6172   -2.5315    0.3179 C   0  0  0  0  0  0  0  0  0  0  0  0
   -0.1321   -1.2223    0.1588 C   0  0  0  0  0  0  0  0  0  0  0  0
    3.2978   -1.6314    0.3793 H   0  0  0  0  0  0  0  0  0  0  0  0
    2.1988   -2.7555   -0.4433 H   0  0  0  0  0  0  0  0  0  0  0  0
    2.1021   -2.5565    1.3079 H   0  0  0  0  0  0  0  0  0  0  0  0
    2.7302    0.6096    0.0988 H   0  0  0  0  0  0  0  0  0  0  0  0
    2.2291    2.9903   -0.2681 H   0  0  0  0  0  0  0  0  0  0  0  0
    0.5275    4.7914   -0.6343 H   0  0  0  0  0  0  0  0  0  0  0  0
   -1.8726    4.1634   -0.6818 H   0  0  0  0  0  0  0  0  0  0  0  0
   -3.9061   -1.8371    0.0675 H   0  0  0  0  0  0  0  0  0  0  0  0
   -2.3640   -3.7588    0.4167 H   0  0  0  0  0  0  0  0  0  0  0  0
    0.0772   -3.3390    0.4598 H   0  0  0  0  0  0  0  0  0  0  0  0
  1  2  1  0
  2  3  2  0
  3  4  1  0
  4  5  2  0
  5  6  1  0
  6  7  2  0
  7  8  1  0
  8  9  2  0
  9 10  1  0
 10 11  2  0
 11 12  1  0
 12 13  2  0
 13 14  1  0
 14 15  2  0
 15  2  1  0
  9  4  1  0
 15 10  1  0
  1 16  1  0
  1 17  1  0
  1 18  1  0
  3 19  1  0
  5 20  1  0
  6 21  1  0
  7 22  1  0
 12 23  1  0
 13 24  1  0
 14 25  1  0
M  END
$$$$

     RDKit          3D

 25 27  0  0  0  0  0  0  0  0999 V2000
   -2.2363    0.9618   -1.8603 C   0  0  0  0  0  0  0  0  0  0  0  0
   -1.0352    0.5911   -1.0348 C   0  0  0  0  0  0  0  0  0  0  0  0
    0.1768    1.1249   -1.2797 C   0  0  0  0  0  0  0  0  0  0  0  0
    1.3284    0.7877   -0.5257 C   0  0  0  0  0  0  0  0  0  0  0  0
    2.6000    1.3456   -0.7916 C   0  0  0  0  0  0  0  0  0  0  0  0
    3.6774    0.9566   -0.0324 C   0  0  0  0  0  0  0  0  0  0  0  0
    3.4795    0.0180    0.9956 C   0  0  0  0  0  0  0  0  0  0  0  0
    2.2822   -0.5213    1.2875 N   0  0  0  0  0  0  0  0  0  0  0  0
    1.2328   -0.1518    0.5494 C   0  0  0  0  0  0  0  0  0  0  0  0
   -0.0673   -0.7230    0.8549 C   0  0  0  0  0  0  0  0  0  0  0  0
   -0.1526   -1.5761    1.8707 N   0  0  0  0  0  0  0  0  0  0  0  0
   -1.3486   -2.1014    2.1588 C   0  0  0  0  0  0  0  0  0  0  0  0
   -2.5101   -1.8126    1.4267 C   0  0  0  0  0  0  0  0  0  0  0  0
   -2.4266   -0.9384    0.3704 C   0  0  0  0  0  0  0  0  0  0  0  0
   -1.1906   -0.3505    0.0486 C   0  0  0  0  0  0  0  0  0  0  0  0
   -3.0095    1.4196   -1.2387 H   0  0  0  0  0  0  0  0  0  0  0  0
   -1.9596    1.6812   -2.6456 H   0  0  0  0  0  0  0  0  0  0  0  0
   -2.6646    0.0796   -2.3384 H   0  0  0  0  0  0  0  0  0  0  0  0
    0.2968    1.8431   -2.0887 H   0  0  0  0  0  0  0  0  0  0  0  0
    2.6887    2.0650   -1.5846 H   0  0  0  0  0  0  0  0  0  0  0  0
    4.6633    1.3582   -0.2130 H   0  0  0  0  0  0  0  0  0  0  0  0
    4.3152   -0.3057    1.5937 H   0  0  0  0  0  0  0  0  0  0  0  0
   -1.3926   -2.7822    2.9955 H   0  0  0  0  0  0  0  0  0  0  0  0
   -3.4491   -2.2738    1.6934 H   0  0  0  0  0  0  0  0  0  0  0  0
   -3.2982   -0.6953   -0.2117 H   0  0  0  0  0  0  0  0  0  0  0  0
  1  2  1  0
  2  3  2  0
  3  4  1  0
  4  5  2  0
  5  6  1  0
  6  7  2  0
  7  8  1  0
  8  9  2  0
  9 10  1  0
 10 11  2  0
 11 12  1  0
 12 13  2  0
 13 14  1  0
 14 15  2  0
 15  2  1  0
  9  4  1  0
 15 10  1  0
  1 16  1  0
  1 17  1  0
  1 18  1  0
  3 19  1  0
  5 20  1  0
  6 21  1  0
  7 22  1  0
 12 23  1  0
 13 24  1  0
 14 25  1  0
M  END
$$$$

     RDKit          3D

 25 27  0  0  0  0  0  0  0  0999 V2000
    1.2910   -2.6187    0.9292 C   0  0  0  0  0  0  0  0  0  0  0  0
    0.8118   -1.2812    0.4371 C   0  0  0  0  0  0  0  0  0  0  0  0
    1.6721   -0.3625   -0.0445 C   0  0  0  0  0  0  0  0  0  0  0  0
    1.2505    0.9013   -0.5268 C   0  0  0  0  0  0  0  0  0  0  0  0
    2.1590    1.8634   -1.0196 C   0  0  0  0  0  0  0  0  0  0  0  0
    1.6820    3.0646   -1.4882 C   0  0  0  0  0  0  0  0  0  0  0  0
    0.2979    3.3035   -1.4559 C   0  0  0  0  0  0  0  0  0  0  0  0
   -0.5977    2.4154   -0.9847 N   0  0  0  0  0  0  0  0  0  0  0  0
   -0.1392    1.2475   -0.5240 C   0  0  0  0  0  0  0  0  0  0  0  0
   -1.0893    0.2826    0.0028 C   0  0  0  0  0  0  0  0  0  0  0  0
   -2.3757    0.6149    0.0246 N   0  0  0  0  0  0  0  0  0  0  0  0
   -3.2532   -0.2682    0.5114 C   0  0  0  0  0  0  0  0  0  0  0  0
   -2.8791   -1.5272    1.0048 C   0  0  0  0  0  0  0  0  0  0  0  0
   -1.5495   -1.8716    0.9944 C   0  0  0  0  0  0  0  0  0  0  0  0
   -0.5983   -0.9741    0.4835 C   0  0  0  0  0  0  0  0  0  0  0  0
    0.8340   -3.4302    0.3556 H   0  0  0  0  0  0  0  0  0  0  0  0
    2.3808   -2.7002    0.8217 H   0  0  0  0  0  0  0  0  0  0  0  0
    1.0338   -2.7643    1.9778 H   0  0  0  0  0  0  0  0  0  0  0  0
    2.7389   -0.5798   -0.0713 H   0  0  0  0  0  0  0  0  0  0  0  0
    3.2083    1.6289   -1.0203 H   0  0  0  0  0  0  0  0  0  0  0  0
    2.3516    3.8153   -1.8776 H   0  0  0  0  0  0  0  0  0  0  0  0
   -0.0911    4.2455   -1.8104 H   0  0  0  0  0  0  0  0  0  0  0  0
   -4.2912    0.0259    0.5133 H   0  0  0  0  0  0  0  0  0  0  0  0
   -3.6236   -2.2092    1.3881 H   0  0  0  0  0  0  0  0  0  0  0  0
   -1.2238   -2.8217    1.3789 H   0  0  0  0  0  0  0  0  0  0  0  0
  1  2  1  0
  2  3  2  0
  3  4  1  0
  4  5  2  0
  5  6  1  0
  6  7  2  0
  7  8  1  0
  8  9  2  0
  9 10  1  0
 10 11  2  0
 11 12  1  0
 12 13  2  0
 13 14  1  0
 14 15  2  0
 15  2  1  0
  9  4  1  0
 15 10  1  0
  1 16  1  0
  1 17  1  0
  1 18  1  0
  3 19  1  0
  5 20  1  0
  6 21  1  0
  7 22  1  0
 12 23  1  0
 13 24  1  0
 14 25  1  0
M  END
$$$$

     RDKit          3D

 25 27  0  0  0  0  0  0  0  0999 V2000
   -1.8777   -0.1087   -2.4157 C   0  0  0  0  0  0  0  0  0  0  0  0
   -0.8586   -0.1565   -1.3130 C   0  0  0  0  0  0  0  0  0  0  0  0
    0.2752   -0.8722   -1.4437 C   0  0  0  0  0  0  0  0  0  0  0  0
    1.2604   -0.9382   -0.4290 C   0  0  0  0  0  0  0  0  0  0  0  0
    2.4380   -1.7076   -0.5670 C   0  0  0  0  0  0  0  0  0  0  0  0
    3.3519   -1.7303    0.4587 C   0  0  0  0  0  0  0  0  0  0  0  0
    3.0863   -0.9790    1.6175 C   0  0  0  0  0  0  0  0  0  0  0  0
    1.9788   -0.2316    1.7828 N   0  0  0  0  0  0  0  0  0  0  0  0
    1.0833   -0.2149    0.7933 C   0  0  0  0  0  0  0  0  0  0  0  0
   -0.1249    0.5735    0.9583 C   0  0  0  0  0  0  0  0  0  0  0  0
   -0.2832    1.2470    2.0925 N   0  0  0  0  0  0  0  0  0  0  0  0
   -1.4025    1.9589    2.2597 C   0  0  0  0  0  0  0  0  0  0  0  0
   -2.4195    2.0267    1.2940 C   0  0  0  0  0  0  0  0  0  0  0  0
   -2.2587    1.3418    0.1143 C   0  0  0  0  0  0  0  0  0  0  0  0
   -1.0930    0.5839   -0.0968 C   0  0  0  0  0  0  0  0  0  0  0  0
   -1.5600   -0.7283   -3.2653 H   0  0  0  0  0  0  0  0  0  0  0  0
   -2.0105    0.9157   -2.7764 H   0  0  0  0  0  0  0  0  0  0  0  0
   -2.8476   -0.4719   -2.0687 H   0  0  0  0  0  0  0  0  0  0  0  0
    0.4564   -1.4318   -2.3604 H   0  0  0  0  0  0  0  0  0  0  0  0
    2.5842   -2.2639   -1.4746 H   0  0  0  0  0  0  0  0  0  0  0  0
    4.2603   -2.3087    0.3867 H   0  0  0  0  0  0  0  0  0  0  0  0
    3.7888   -0.9877    2.4353 H   0  0  0  0  0  0  0  0  0  0  0  0
   -1.5022    2.5011    3.1871 H   0  0  0  0  0  0  0  0  0  0  0  0
   -3.3114    2.6069    1.4810 H   0  0  0  0  0  0  0  0  0  0  0  0
   -3.0137    1.3758   -0.6506 H   0  0  0  0  0  0  0  0  0  0  0  0
  1  2  1  0
  2  3  2  0
  3  4  1  0
  4  5  2  0
  5  6  1  0
  6  7  2  0
  7  8  1  0
  8  9  2  0
  9 10  1  0
 10 11  2  0
 11 12  1  0
 12 13  2  0
 13 14  1  0
 14 15  2  0
 15  2  1  0
  9  4  1  0
 15 10  1  0
  1 16  1  0
  1 17  1  0
  1 18  1  0
  3 19  1  0
  5 20  1  0
  6 21  1  0
  7 22  1  0
 12 23  1  0
 13 24  1  0
 14 25  1  0
M  END
$$$$

     RDKit          3D

 25 27  0  0  0  0  0  0  0  0999 V2000
    3.0476   -0.3371   -0.0698 C   0  0  0  0  0  0  0  0  0  0  0  0
    1.5768   -0.0632    0.0854 C   0  0  0  0  0  0  0  0  0  0  0  0
    1.1249    0.8194    0.9971 C   0  0  0  0  0  0  0  0  0  0  0  0
   -0.2541    1.0958    1.1775 C   0  0  0  0  0  0  0  0  0  0  0  0
   -0.7267    2.0109    2.1466 C   0  0  0  0  0  0  0  0  0  0  0  0
   -2.0778    2.2344    2.2633 C   0  0  0  0  0  0  0  0  0  0  0  0
   -2.9556    1.5442    1.4087 C   0  0  0  0  0  0  0  0  0  0  0  0
   -2.5433    0.6636    0.4765 N   0  0  0  0  0  0  0  0  0  0  0  0
   -1.2313    0.4387    0.3646 C   0  0  0  0  0  0  0  0  0  0  0  0
   -0.7714   -0.5077   -0.6358 C   0  0  0  0  0  0  0  0  0  0  0  0
   -1.6854   -1.1074   -1.3899 N   0  0  0  0  0  0  0  0  0  0  0  0
   -1.2695   -1.9832   -2.3118 C   0  0  0  0  0  0  0  0  0  0  0  0
    0.0820   -2.2915   -2.5229 C   0  0  0  0  0  0  0  0  0  0  0  0
    1.0297   -1.6794   -1.7388 C   0  0  0  0  0  0  0  0  0  0  0  0
    0.6336   -0.7526   -0.7614 C   0  0  0  0  0  0  0  0  0  0  0  0
    3.2628   -1.3959    0.0874 H   0  0  0  0  0  0  0  0  0  0  0  0
    3.3928   -0.0684   -1.0720 H   0  0  0  0  0  0  0  0  0  0  0  0
    3.6253    0.2471    0.6623 H   0  0  0  0  0  0  0  0  0  0  0  0
    1.8331    1.3453    1.6355 H   0  0  0  0  0  0  0  0  0  0  0  0
   -0.0118    2.5146    2.7707 H   0  0  0  0  0  0  0  0  0  0  0  0
   -2.4703    2.9248    2.9950 H   0  0  0  0  0  0  0  0  0  0  0  0
   -4.0172    1.7123    1.4852 H   0  0  0  0  0  0  0  0  0  0  0  0
   -2.0352   -2.4596   -2.9047 H   0  0  0  0  0  0  0  0  0  0  0  0
    0.3653   -3.0059   -3.2819 H   0  0  0  0  0  0  0  0  0  0  0  0
    2.0759   -1.8993   -1.8669 H   0  0  0  0  0  0  0  0  0  0  0  0
  1  2  1  0
  2  3  2  0
  3  4  1  0
  4  5  2  0
  5  6  1  0
  6  7  2  0
  7  8  1  0
  8  9  2  0
  9 10  1  0
 10 11  2  0
 11 12  1  0
 12 13  2  0
 13 14  1  0
 14 15  2  0
 15  2  1  0
  9  4  1  0
 15 10  1  0
  1 16  1  0
  1 17  1  0
  1 18  1  0
  3 19  1  0
  5 20  1  0
  6 21  1  0
  7 22  1  0
 12 23  1  0
 13 24  1  0
 14 25  1  0
M  END
$$$$

     RDKit          3D

 25 27  0  0  0  0  0  0  0  0999 V2000
   -2.0821    2.2487   -0.0284 C   0  0  0  0  0  0  0  0  0  0  0  0
   -1.1425    1.0817   -0.1434 C   0  0  0  0  0  0  0  0  0  0  0  0
   -1.2594    0.1865   -1.1444 C   0  0  0  0  0  0  0  0  0  0  0  0
   -0.3776   -0.9129   -1.2952 C   0  0  0  0  0  0  0  0  0  0  0  0
   -0.5000   -1.8448   -2.3518 C   0  0  0  0  0  0  0  0  0  0  0  0
    0.3930   -2.8857   -2.4386 C   0  0  0  0  0  0  0  0  0  0  0  0
    1.4062   -2.9931   -1.4695 C   0  0  0  0  0  0  0  0  0  0  0  0
    1.5538   -2.1280   -0.4494 N   0  0  0  0  0  0  0  0  0  0  0  0
    0.6846   -1.1175   -0.3582 C   0  0  0  0  0  0  0  0  0  0  0  0
    0.8269   -0.1749    0.7362 C   0  0  0  0  0  0  0  0  0  0  0  0
    1.8067   -0.3796    1.6099 N   0  0  0  0  0  0  0  0  0  0  0  0
    1.9526    0.4917    2.6121 C   0  0  0  0  0  0  0  0  0  0  0  0
    1.1250    1.6125    2.7848 C   0  0  0  0  0  0  0  0  0  0  0  0
    0.1004    1.8212    1.8940 C   0  0  0  0  0  0  0  0  0  0  0  0
   -0.0881    0.9227    0.8287 C   0  0  0  0  0  0  0  0  0  0  0  0
   -2.6191    2.2298    0.9217 H   0  0  0  0  0  0  0  0  0  0  0  0
   -1.5360    3.1948   -0.0881 H   0  0  0  0  0  0  0  0  0  0  0  0
   -2.8223    2.2263   -0.8401 H   0  0  0  0  0  0  0  0  0  0  0  0
   -2.0551    0.2972   -1.8800 H   0  0  0  0  0  0  0  0  0  0  0  0
   -1.2944   -1.7123   -3.0627 H   0  0  0  0  0  0  0  0  0  0  0  0
    0.3281   -3.6133   -3.2348 H   0  0  0  0  0  0  0  0  0  0  0  0
    2.1070   -3.8114   -1.5150 H   0  0  0  0  0  0  0  0  0  0  0  0
    2.7578    0.3048    3.3052 H   0  0  0  0  0  0  0  0  0  0  0  0
    1.2949    2.2918    3.6071 H   0  0  0  0  0  0  0  0  0  0  0  0
   -0.5603    2.6638    2.0000 H   0  0  0  0  0  0  0  0  0  0  0  0
  1  2  1  0
  2  3  2  0
  3  4  1  0
  4  5  2  0
  5  6  1  0
  6  7  2  0
  7  8  1  0
  8  9  2  0
  9 10  1  0
 10 11  2  0
 11 12  1  0
 12 13  2  0
 13 14  1  0
 14 15  2  0
 15  2  1  0
  9  4  1  0
 15 10  1  0
  1 16  1  0
  1 17  1  0
  1 18  1  0
  3 19  1  0
  5 20  1  0
  6 21  1  0
  7 22  1  0
 12 23  1  0
 13 24  1  0
 14 25  1  0
M  END
$$$$

     RDKit          3D

 25 27  0  0  0  0  0  0  0  0999 V2000
   -0.4426   -2.7884   -1.1887 C   0  0  0  0  0  0  0  0  0  0  0  0
   -0.2672   -1.3609   -0.7540 C   0  0  0  0  0  0  0  0  0  0  0  0
   -0.4286   -0.3419   -1.6204 C   0  0  0  0  0  0  0  0  0  0  0  0
   -0.2519    1.0146   -1.2504 C   0  0  0  0  0  0  0  0  0  0  0  0
   -0.3876    2.0752   -2.1721 C   0  0  0  0  0  0  0  0  0  0  0  0
   -0.2046    3.3676   -1.7417 C   0  0  0  0  0  0  0  0  0  0  0  0
    0.1100    3.5974   -0.3914 C   0  0  0  0  0  0  0  0  0  0  0  0
    0.2484    2.6132    0.5156 N   0  0  0  0  0  0  0  0  0  0  0  0
    0.0863    1.3540    0.0993 C   0  0  0  0  0  0  0  0  0  0  0  0
    0.2537    0.2778    1.0589 C   0  0  0  0  0  0  0  0  0  0  0  0
    0.5762    0.5980    2.3098 N   0  0  0  0  0  0  0  0  0  0  0  0
    0.7356   -0.3904    3.1954 C   0  0  0  0  0  0  0  0  0  0  0  0
    0.5894   -1.7485    2.8660 C   0  0  0  0  0  0  0  0  0  0  0  0
    0.2673   -2.0880    1.5738 C   0  0  0  0  0  0  0  0  0  0  0  0
    0.0848   -1.0743    0.6166 C   0  0  0  0  0  0  0  0  0  0  0  0
   -1.2381   -3.2784   -0.6215 H   0  0  0  0  0  0  0  0  0  0  0  0
    0.4773   -3.3534   -1.0387 H   0  0  0  0  0  0  0  0  0  0  0  0
   -0.7097   -2.8386   -2.2539 H   0  0  0  0  0  0  0  0  0  0  0  0
   -0.7022   -0.5544   -2.6529 H   0  0  0  0  0  0  0  0  0  0  0  0
   -0.6347    1.8416   -3.1916 H   0  0  0  0  0  0  0  0  0  0  0  0
   -0.3002    4.2004   -2.4211 H   0  0  0  0  0  0  0  0  0  0  0  0
    0.2632    4.6051   -0.0402 H   0  0  0  0  0  0  0  0  0  0  0  0
    0.9938   -0.1040    4.2031 H   0  0  0  0  0  0  0  0  0  0  0  0
    0.7312   -2.5085    3.6194 H   0  0  0  0  0  0  0  0  0  0  0  0
    0.1503   -3.1152    1.2808 H   0  0  0  0  0  0  0  0  0  0  0  0
  1  2  1  0
  2  3  2  0
  3  4  1  0
  4  5  2  0
  5  6  1  0
  6  7  2  0
  7  8  1  0
  8  9  2  0
  9 10  1  0
 10 11  2  0
 11 12  1  0
 12 13  2  0
 13 14  1  0
 14 15  2  0
 15  2  1  0
  9  4  1  0
 15 10  1  0
  1 16  1  0
  1 17  1  0
  1 18  1  0
  3 19  1  0
  5 20  1  0
  6 21  1  0
  7 22  1  0
 12 23  1  0
 13 24  1  0
 14 25  1  0
M  END
$$$$
