
     RDKit          3D

 26 27  0  0  0  0  0  0  0  0999 V2000
   -1.0414    3.9294    1.6406 C   0  0  0  0  0  0  0  0  0  0  0  0
   -1.1888    2.7412    0.7509 C   0  0  0  0  0  0  0  0  0  0  0  0
   -2.2169    2.6622   -0.1910 C   0  0  0  0  0  0  0  0  0  0  0  0
   -2.3181    1.5295   -0.9866 C   0  0  0  0  0  0  0  0  0  0  0  0
   -1.4817    0.4946   -0.9242 N   0  0  0  0  0  0  0  0  0  0  0  0
   -0.4949    0.5643   -0.0181 C   0  0  0  0  0  0  0  0  0  0  0  0
    0.4321   -0.5994    0.0610 C   0  0  0  0  0  0  0  0  0  0  0  0
    0.3465   -1.6283   -0.8660 C   0  0  0  0  0  0  0  0  0  0  0  0
    1.2171   -2.7170   -0.7852 C   0  0  0  0  0  0  0  0  0  0  0  0
    1.1701   -3.8520   -1.7526 C   0  0  0  0  0  0  0  0  0  0  0  0
    2.1482   -2.7008    0.2557 C   0  0  0  0  0  0  0  0  0  0  0  0
    2.1605   -1.6278    1.1355 C   0  0  0  0  0  0  0  0  0  0  0  0
    1.3322   -0.5865    1.0585 N   0  0  0  0  0  0  0  0  0  0  0  0
   -0.3189    1.6529    0.8232 C   0  0  0  0  0  0  0  0  0  0  0  0
   -1.1403    4.8556    1.0740 H   0  0  0  0  0  0  0  0  0  0  0  0
   -0.0669    3.9425    2.1380 H   0  0  0  0  0  0  0  0  0  0  0  0
   -1.8096    3.9391    2.4135 H   0  0  0  0  0  0  0  0  0  0  0  0
   -2.9297    3.4741   -0.2946 H   0  0  0  0  0  0  0  0  0  0  0  0
   -3.1124    1.4372   -1.7225 H   0  0  0  0  0  0  0  0  0  0  0  0
   -0.4003   -1.5849   -1.6522 H   0  0  0  0  0  0  0  0  0  0  0  0
    0.4723   -3.6577   -2.5719 H   0  0  0  0  0  0  0  0  0  0  0  0
    2.1531   -4.0373   -2.1852 H   0  0  0  0  0  0  0  0  0  0  0  0
    0.8611   -4.7759   -1.2611 H   0  0  0  0  0  0  0  0  0  0  0  0
    2.8499   -3.5204    0.3734 H   0  0  0  0  0  0  0  0  0  0  0  0
    2.8786   -1.5884    1.9511 H   0  0  0  0  0  0  0  0  0  0  0  0
    0.4982    1.6537    1.5356 H   0  0  0  0  0  0  0  0  0  0  0  0
  1  2  1  0
  2  3  2  0
  3  4  1  0
  4  5  2  0
  5  6  1  0
  6  7  1  0
  7  8  2  0
  8  9  1  0
  9 10  1  0
  9 11  2  0
 11 12  1  0
 12 13  2  0
  6 14  2  0
 14  2  1  0
 13  7  1  0
  1 15  1  0
  1 16  1  0
  1 17  1  0
  3 18  1  0
  4 19  1  0
  8 20  1  0
 10 21  1  0
 10 22  1  0
 10 23  1  0
 11 24  1  0
 12 25  1  0
 14 26  1  0
M  END
$$$$

     RDKit          3D

 26 27  0  0  0  0  0  0  0  0999 V2000
   -0.5878    1.2860   -4.1541 C   0  0  0  0  0  0  0  0  0  0  0  0
   -0.7319    0.3930   -2.9665 C   0  0  0  0  0  0  0  0  0  0  0  0
   -1.4645   -0.7940   -3.0399 C   0  0  0  0  0  0  0  0  0  0  0  0
   -1.5734   -1.5913   -1.9085 C   0  0  0  0  0  0  0  0  0  0  0  0
   -1.0176   -1.3036   -0.7324 N   0  0  0  0  0  0  0  0  0  0  0  0
   -0.3128   -0.1632   -0.6571 C   0  0  0  0  0  0  0  0  0  0  0  0
    0.3110    0.1549    0.6583 C   0  0  0  0  0  0  0  0  0  0  0  0
    0.1314   -0.6928    1.7406 C   0  0  0  0  0  0  0  0  0  0  0  0
    0.7226   -0.3899    2.9679 C   0  0  0  0  0  0  0  0  0  0  0  0
    0.5831   -1.2753    4.1604 C   0  0  0  0  0  0  0  0  0  0  0  0
    1.4684    0.7902    3.0337 C   0  0  0  0  0  0  0  0  0  0  0  0
    1.5913    1.5786    1.8982 C   0  0  0  0  0  0  0  0  0  0  0  0
    1.0345    1.2851    0.7251 N   0  0  0  0  0  0  0  0  0  0  0  0
   -0.1503    0.6955   -1.7353 C   0  0  0  0  0  0  0  0  0  0  0  0
   -0.1328    0.7548   -4.9891 H   0  0  0  0  0  0  0  0  0  0  0  0
   -1.5593    1.6443   -4.4941 H   0  0  0  0  0  0  0  0  0  0  0  0
    0.0335    2.1577   -3.9336 H   0  0  0  0  0  0  0  0  0  0  0  0
   -1.9362   -1.0895   -3.9709 H   0  0  0  0  0  0  0  0  0  0  0  0
   -2.1432   -2.5181   -1.9380 H   0  0  0  0  0  0  0  0  0  0  0  0
   -0.4742   -1.5872    1.6307 H   0  0  0  0  0  0  0  0  0  0  0  0
    0.1649   -0.7279    5.0059 H   0  0  0  0  0  0  0  0  0  0  0  0
    1.5540   -1.6567    4.4748 H   0  0  0  0  0  0  0  0  0  0  0  0
   -0.0632   -2.1314    3.9571 H   0  0  0  0  0  0  0  0  0  0  0  0
    1.9467    1.0827    3.9629 H   0  0  0  0  0  0  0  0  0  0  0  0
    2.1701    2.4989    1.9223 H   0  0  0  0  0  0  0  0  0  0  0  0
    0.4357    1.5991   -1.6184 H   0  0  0  0  0  0  0  0  0  0  0  0
  1  2  1  0
  2  3  2  0
  3  4  1  0
  4  5  2  0
  5  6  1  0
  6  7  1  0
  7  8  2  0
  8  9  1  0
  9 10  1  0
  9 11  2  0
 11 12  1  0
 12 13  2  0
  6 14  2  0
 14  2  1  0
 13  7  1  0
  1 15  1  0
  1 16  1  0
  1 17  1  0
  3 18  1  0
  4 19  1  0
  8 20  1  0
 10 21  1  0
 10 22  1  0
 10 23  1  0
 11 24  1  0
 12 25  1  0
 14 26  1  0
M  END
$$$$

     RDKit          3D

 26 27  0  0  0  0  0  0  0  0999 V2000
    2.3950    1.4505   -3.3813 C   0  0  0  0  0  0  0  0  0  0  0  0
    2.1208    0.7018   -2.1196 C   0  0  0  0  0  0  0  0  0  0  0  0
    3.1174   -0.0578   -1.5015 C   0  0  0  0  0  0  0  0  0  0  0  0
    2.8210   -0.7396   -0.3303 C   0  0  0  0  0  0  0  0  0  0  0  0
    1.6263   -0.7256    0.2596 N   0  0  0  0  0  0  0  0  0  0  0  0
    0.6647    0.0026   -0.3328 C   0  0  0  0  0  0  0  0  0  0  0  0
   -0.6688    0.0158    0.3333 C   0  0  0  0  0  0  0  0  0  0  0  0
   -0.8698   -0.7115    1.4967 C   0  0  0  0  0  0  0  0  0  0  0  0
   -2.1184   -0.7034    2.1183 C   0  0  0  0  0  0  0  0  0  0  0  0
   -2.3931   -1.4755    3.3652 C   0  0  0  0  0  0  0  0  0  0  0  0
   -3.1179    0.0646    1.5140 C   0  0  0  0  0  0  0  0  0  0  0  0
   -2.8234    0.7622    0.3509 C   0  0  0  0  0  0  0  0  0  0  0  0
   -1.6316    0.7513   -0.2455 N   0  0  0  0  0  0  0  0  0  0  0  0
    0.8698    0.7195   -1.5014 C   0  0  0  0  0  0  0  0  0  0  0  0
    1.5318    2.0395   -3.6985 H   0  0  0  0  0  0  0  0  0  0  0  0
    2.6521    0.7651   -4.1910 H   0  0  0  0  0  0  0  0  0  0  0  0
    3.2386    2.1286   -3.2549 H   0  0  0  0  0  0  0  0  0  0  0  0
    4.1113   -0.1111   -1.9352 H   0  0  0  0  0  0  0  0  0  0  0  0
    3.5816   -1.3355    0.1705 H   0  0  0  0  0  0  0  0  0  0  0  0
   -0.0499   -1.2803    1.9186 H   0  0  0  0  0  0  0  0  0  0  0  0
   -2.7722   -0.8209    4.1500 H   0  0  0  0  0  0  0  0  0  0  0  0
   -1.4985   -1.9755    3.7417 H   0  0  0  0  0  0  0  0  0  0  0  0
   -3.1527   -2.2384    3.1893 H   0  0  0  0  0  0  0  0  0  0  0  0
   -4.1080    0.1149    1.9554 H   0  0  0  0  0  0  0  0  0  0  0  0
   -3.5826    1.3676   -0.1397 H   0  0  0  0  0  0  0  0  0  0  0  0
    0.0564    1.2910   -1.9316 H   0  0  0  0  0  0  0  0  0  0  0  0
  1  2  1  0
  2  3  2  0
  3  4  1  0
  4  5  2  0
  5  6  1  0
  6  7  1  0
  7  8  2  0
  8  9  1  0
  9 10  1  0
  9 11  2  0
 11 12  1  0
 12 13  2  0
  6 14  2  0
 14  2  1  0
 13  7  1  0
  1 15  1  0
  1 16  1  0
  1 17  1  0
  3 18  1  0
  4 19  1  0
  8 20  1  0
 10 21  1  0
 10 22  1  0
 10 23  1  0
 11 24  1  0
 12 25  1  0
 14 26  1  0
M  END
$$$$

     RDKit          3D

 26 27  0  0  0  0  0  0  0  0999 V2000
    4.3078   -0.5734   -0.6280 C   0  0  0  0  0  0  0  0  0  0  0  0
    2.9876   -0.7587    0.0411 C   0  0  0  0  0  0  0  0  0  0  0  0
    2.8555   -1.5849    1.1599 C   0  0  0  0  0  0  0  0  0  0  0  0
    1.6070   -1.7287    1.7487 C   0  0  0  0  0  0  0  0  0  0  0  0
    0.5006   -1.1280    1.3148 N   0  0  0  0  0  0  0  0  0  0  0  0
    0.6232   -0.3298    0.2428 C   0  0  0  0  0  0  0  0  0  0  0  0
   -0.6173    0.3488   -0.2291 C   0  0  0  0  0  0  0  0  0  0  0  0
   -1.8309    0.0967    0.3938 C   0  0  0  0  0  0  0  0  0  0  0  0
   -2.9869    0.7424   -0.0475 C   0  0  0  0  0  0  0  0  0  0  0  0
   -4.3250    0.4994    0.5674 C   0  0  0  0  0  0  0  0  0  0  0  0
   -2.8424    1.6360   -1.1121 C   0  0  0  0  0  0  0  0  0  0  0  0
   -1.5878    1.8245   -1.6733 C   0  0  0  0  0  0  0  0  0  0  0  0
   -0.4868    1.2007   -1.2596 N   0  0  0  0  0  0  0  0  0  0  0  0
    1.8297   -0.1248   -0.4111 C   0  0  0  0  0  0  0  0  0  0  0  0
    4.7168   -1.5288   -0.9549 H   0  0  0  0  0  0  0  0  0  0  0  0
    5.0322   -0.1332    0.0539 H   0  0  0  0  0  0  0  0  0  0  0  0
    4.2309    0.0757   -1.5040 H   0  0  0  0  0  0  0  0  0  0  0  0
    3.7181   -2.1056    1.5613 H   0  0  0  0  0  0  0  0  0  0  0  0
    1.4757   -2.3673    2.6177 H   0  0  0  0  0  0  0  0  0  0  0  0
   -1.8771   -0.6015    1.2242 H   0  0  0  0  0  0  0  0  0  0  0  0
   -4.9977    0.0234   -0.1472 H   0  0  0  0  0  0  0  0  0  0  0  0
   -4.7903    1.4385    0.8642 H   0  0  0  0  0  0  0  0  0  0  0  0
   -4.2598   -0.1421    1.4479 H   0  0  0  0  0  0  0  0  0  0  0  0
   -3.7037    2.1771   -1.4914 H   0  0  0  0  0  0  0  0  0  0  0  0
   -1.4486    2.5147   -2.5035 H   0  0  0  0  0  0  0  0  0  0  0  0
    1.8691    0.5289   -1.2759 H   0  0  0  0  0  0  0  0  0  0  0  0
  1  2  1  0
  2  3  2  0
  3  4  1  0
  4  5  2  0
  5  6  1  0
  6  7  1  0
  7  8  2  0
  8  9  1  0
  9 10  1  0
  9 11  2  0
 11 12  1  0
 12 13  2  0
  6 14  2  0
 14  2  1  0
 13  7  1  0
  1 15  1  0
  1 16  1  0
  1 17  1  0
  3 18  1  0
  4 19  1  0
  8 20  1  0
 10 21  1  0
 10 22  1  0
 10 23  1  0
 11 24  1  0
 12 25  1  0
 14 26  1  0
M  END
$$$$

     RDKit          3D

 26 27  0  0  0  0  0  0  0  0999 V2000
   -4.0317    1.5270    0.8165 C   0  0  0  0  0  0  0  0  0  0  0  0
   -2.5801    1.2948    1.0709 C   0  0  0  0  0  0  0  0  0  0  0  0
   -1.9577    1.8042    2.2130 C   0  0  0  0  0  0  0  0  0  0  0  0
   -0.6016    1.5781    2.4023 C   0  0  0  0  0  0  0  0  0  0  0  0
    0.1646    0.8890    1.5580 N   0  0  0  0  0  0  0  0  0  0  0  0
   -0.4313    0.3883    0.4638 C   0  0  0  0  0  0  0  0  0  0  0  0
    0.4293   -0.3845   -0.4756 C   0  0  0  0  0  0  0  0  0  0  0  0
    1.7731   -0.5738   -0.1904 C   0  0  0  0  0  0  0  0  0  0  0  0
    2.5798   -1.2953   -1.0717 C   0  0  0  0  0  0  0  0  0  0  0  0
    4.0285   -1.5321   -0.8016 C   0  0  0  0  0  0  0  0  0  0  0  0
    1.9624   -1.8023   -2.2181 C   0  0  0  0  0  0  0  0  0  0  0  0
    0.6103   -1.5626   -2.4196 C   0  0  0  0  0  0  0  0  0  0  0  0
   -0.1592   -0.8698   -1.5805 N   0  0  0  0  0  0  0  0  0  0  0  0
   -1.7791    0.5644    0.1917 C   0  0  0  0  0  0  0  0  0  0  0  0
   -4.3635    1.0439   -0.1072 H   0  0  0  0  0  0  0  0  0  0  0  0
   -4.2473    2.5939    0.7318 H   0  0  0  0  0  0  0  0  0  0  0  0
   -4.6376    1.1389    1.6342 H   0  0  0  0  0  0  0  0  0  0  0  0
   -2.5299    2.3694    2.9423 H   0  0  0  0  0  0  0  0  0  0  0  0
   -0.0919    1.9709    3.2791 H   0  0  0  0  0  0  0  0  0  0  0  0
    2.1930   -0.1595    0.7190 H   0  0  0  0  0  0  0  0  0  0  0  0
    4.3885   -0.9348    0.0385 H   0  0  0  0  0  0  0  0  0  0  0  0
    4.6365   -1.2858   -1.6752 H   0  0  0  0  0  0  0  0  0  0  0  0
    4.2112   -2.5809   -0.5683 H   0  0  0  0  0  0  0  0  0  0  0  0
    2.5341   -2.3772   -2.9399 H   0  0  0  0  0  0  0  0  0  0  0  0
    0.1059   -1.9421   -3.3056 H   0  0  0  0  0  0  0  0  0  0  0  0
   -2.2061    0.1380   -0.7074 H   0  0  0  0  0  0  0  0  0  0  0  0
  1  2  1  0
  2  3  2  0
  3  4  1  0
  4  5  2  0
  5  6  1  0
  6  7  1  0
  7  8  2  0
  8  9  1  0
  9 10  1  0
  9 11  2  0
 11 12  1  0
 12 13  2  0
  6 14  2  0
 14  2  1  0
 13  7  1  0
  1 15  1  0
  1 16  1  0
  1 17  1  0
  3 18  1  0
  4 19  1  0
  8 20  1  0
 10 21  1  0
 10 22  1  0
 10 23  1  0
 11 24  1  0
 12 25  1  0
 14 26  1  0
M  END
$$$$

     RDKit          3D

 26 27  0  0  0  0  0  0  0  0999 V2000
    1.3274   -0.2634   -4.1789 C   0  0  0  0  0  0  0  0  0  0  0  0
    0.4640    0.1661   -3.0411 C   0  0  0  0  0  0  0  0  0  0  0  0
   -0.6364    1.0000   -3.2521 C   0  0  0  0  0  0  0  0  0  0  0  0
   -1.4108    1.3847   -2.1674 C   0  0  0  0  0  0  0  0  0  0  0  0
   -1.1783    1.0055   -0.9111 N   0  0  0  0  0  0  0  0  0  0  0  0
   -0.1242    0.1990   -0.7039 C   0  0  0  0  0  0  0  0  0  0  0  0
    0.1266   -0.2247    0.7029 C   0  0  0  0  0  0  0  0  0  0  0  0
   -0.6952    0.2333    1.7224 C   0  0  0  0  0  0  0  0  0  0  0  0
   -0.4579   -0.1569    3.0407 C   0  0  0  0  0  0  0  0  0  0  0  0
   -1.3107    0.3055    4.1738 C   0  0  0  0  0  0  0  0  0  0  0  0
    0.6205   -1.0180    3.2567 C   0  0  0  0  0  0  0  0  0  0  0  0
    1.3862   -1.4278    2.1741 C   0  0  0  0  0  0  0  0  0  0  0  0
    1.1620   -1.0529    0.9143 N   0  0  0  0  0  0  0  0  0  0  0  0
    0.7074   -0.2338   -1.7256 C   0  0  0  0  0  0  0  0  0  0  0  0
    0.7480   -0.8089   -4.9227 H   0  0  0  0  0  0  0  0  0  0  0  0
    2.1435   -0.9092   -3.8471 H   0  0  0  0  0  0  0  0  0  0  0  0
    1.7639    0.5994   -4.6848 H   0  0  0  0  0  0  0  0  0  0  0  0
   -0.8802    1.3395   -4.2545 H   0  0  0  0  0  0  0  0  0  0  0  0
   -2.2679    2.0383   -2.3020 H   0  0  0  0  0  0  0  0  0  0  0  0
   -1.5229    0.8919    1.4895 H   0  0  0  0  0  0  0  0  0  0  0  0
   -2.0607    1.0327    3.8525 H   0  0  0  0  0  0  0  0  0  0  0  0
   -0.7059    0.7733    4.9528 H   0  0  0  0  0  0  0  0  0  0  0  0
   -1.8302   -0.5335    4.6344 H   0  0  0  0  0  0  0  0  0  0  0  0
    0.8536   -1.3603    4.2604 H   0  0  0  0  0  0  0  0  0  0  0  0
    2.2308   -2.0981    2.3150 H   0  0  0  0  0  0  0  0  0  0  0  0
    1.5473   -0.8815   -1.4984 H   0  0  0  0  0  0  0  0  0  0  0  0
  1  2  1  0
  2  3  2  0
  3  4  1  0
  4  5  2  0
  5  6  1  0
  6  7  1  0
  7  8  2  0
  8  9  1  0
  9 10  1  0
  9 11  2  0
 11 12  1  0
 12 13  2  0
  6 14  2  0
 14  2  1  0
 13  7  1  0
  1 15  1  0
  1 16  1  0
  1 17  1  0
  3 18  1  0
  4 19  1  0
  8 20  1  0
 10 21  1  0
 10 22  1  0
 10 23  1  0
 11 24  1  0
 12 25  1  0
 14 26  1  0
M  END
$$$$

     RDKit          3D

 26 27  0  0  0  0  0  0  0  0999 V2000
    4.2093    0.0254   -1.2356 C   0  0  0  0  0  0  0  0  0  0  0  0
    3.0106    0.4634   -0.4621 C   0  0  0  0  0  0  0  0  0  0  0  0
    3.0892    1.4949    0.4760 C   0  0  0  0  0  0  0  0  0  0  0  0
    1.9478    1.8641    1.1756 C   0  0  0  0  0  0  0  0  0  0  0  0
    0.7539    1.2954    1.0086 N   0  0  0  0  0  0  0  0  0  0  0  0
    0.6724    0.3069    0.1049 C   0  0  0  0  0  0  0  0  0  0  0  0
   -0.6657   -0.3209   -0.0837 C   0  0  0  0  0  0  0  0  0  0  0  0
   -1.7595    0.1367    0.6365 C   0  0  0  0  0  0  0  0  0  0  0  0
   -3.0112   -0.4539    0.4550 C   0  0  0  0  0  0  0  0  0  0  0  0
   -4.2192   -0.0043    1.2075 C   0  0  0  0  0  0  0  0  0  0  0  0
   -3.0870   -1.4966   -0.4712 C   0  0  0  0  0  0  0  0  0  0  0  0
   -1.9387   -1.8881   -1.1453 C   0  0  0  0  0  0  0  0  0  0  0  0
   -0.7428   -1.3258   -0.9716 N   0  0  0  0  0  0  0  0  0  0  0  0
    1.7604   -0.1327   -0.6347 C   0  0  0  0  0  0  0  0  0  0  0  0
    4.9495   -0.4383   -0.5817 H   0  0  0  0  0  0  0  0  0  0  0  0
    4.6952    0.8734   -1.7191 H   0  0  0  0  0  0  0  0  0  0  0  0
    3.9468   -0.7000   -2.0109 H   0  0  0  0  0  0  0  0  0  0  0  0
    4.0331    2.0009    0.6533 H   0  0  0  0  0  0  0  0  0  0  0  0
    1.9832    2.6574    1.9163 H   0  0  0  0  0  0  0  0  0  0  0  0
   -1.6381    0.9525    1.3415 H   0  0  0  0  0  0  0  0  0  0  0  0
   -5.0336    0.2399    0.5271 H   0  0  0  0  0  0  0  0  0  0  0  0
   -4.5803   -0.7947    1.8686 H   0  0  0  0  0  0  0  0  0  0  0  0
   -4.0092    0.8776    1.8187 H   0  0  0  0  0  0  0  0  0  0  0  0
   -4.0335   -1.9939   -0.6581 H   0  0  0  0  0  0  0  0  0  0  0  0
   -1.9712   -2.6977   -1.8705 H   0  0  0  0  0  0  0  0  0  0  0  0
    1.6384   -0.9415   -1.3452 H   0  0  0  0  0  0  0  0  0  0  0  0
  1  2  1  0
  2  3  2  0
  3  4  1  0
  4  5  2  0
  5  6  1  0
  6  7  1  0
  7  8  2  0
  8  9  1  0
  9 10  1  0
  9 11  2  0
 11 12  1  0
 12 13  2  0
  6 14  2  0
 14  2  1  0
 13  7  1  0
  1 15  1  0
  1 16  1  0
  1 17  1  0
  3 18  1  0
  4 19  1  0
  8 20  1  0
 10 21  1  0
 10 22  1  0
 10 23  1  0
 11 24  1  0
 12 25  1  0
 14 26  1  0
M  END
$$$$

     RDKit          3D

 26 27  0  0  0  0  0  0  0  0999 V2000
   -0.9010    0.3149   -4.2875 C   0  0  0  0  0  0  0  0  0  0  0  0
   -0.2415    0.6774   -2.9985 C   0  0  0  0  0  0  0  0  0  0  0  0
    0.7009    1.7051   -2.9306 C   0  0  0  0  0  0  0  0  0  0  0  0
    1.3068    1.9872   -1.7156 C   0  0  0  0  0  0  0  0  0  0  0  0
    1.0414    1.3399   -0.5831 N   0  0  0  0  0  0  0  0  0  0  0  0
    0.1270    0.3574   -0.6391 C   0  0  0  0  0  0  0  0  0  0  0  0
   -0.1693   -0.3499    0.6400 C   0  0  0  0  0  0  0  0  0  0  0  0
    0.5352   -0.0268    1.7914 C   0  0  0  0  0  0  0  0  0  0  0  0
    0.2553   -0.6827    2.9912 C   0  0  0  0  0  0  0  0  0  0  0  0
    0.9882   -0.3780    4.2546 C   0  0  0  0  0  0  0  0  0  0  0  0
   -0.7504   -1.6499    2.9576 C   0  0  0  0  0  0  0  0  0  0  0  0
   -1.4014   -1.9063    1.7591 C   0  0  0  0  0  0  0  0  0  0  0  0
   -1.1302   -1.2849    0.6102 N   0  0  0  0  0  0  0  0  0  0  0  0
   -0.5266    0.0030   -1.8098 C   0  0  0  0  0  0  0  0  0  0  0  0
   -1.0709    1.2004   -4.8997 H   0  0  0  0  0  0  0  0  0  0  0  0
   -1.8627   -0.1759   -4.1201 H   0  0  0  0  0  0  0  0  0  0  0  0
   -0.2788   -0.3685   -4.8646 H   0  0  0  0  0  0  0  0  0  0  0  0
    0.9537    2.2775   -3.8171 H   0  0  0  0  0  0  0  0  0  0  0  0
    2.0518    2.7756   -1.6352 H   0  0  0  0  0  0  0  0  0  0  0  0
    1.3070    0.7337    1.7537 H   0  0  0  0  0  0  0  0  0  0  0  0
    0.3123    0.0286    5.0075 H   0  0  0  0  0  0  0  0  0  0  0  0
    1.4307   -1.2815    4.6767 H   0  0  0  0  0  0  0  0  0  0  0  0
    1.7899    0.3456    4.0936 H   0  0  0  0  0  0  0  0  0  0  0  0
   -1.0200   -2.1917    3.8598 H   0  0  0  0  0  0  0  0  0  0  0  0
   -2.1864   -2.6546    1.7062 H   0  0  0  0  0  0  0  0  0  0  0  0
   -1.2609   -0.7956   -1.8006 H   0  0  0  0  0  0  0  0  0  0  0  0
  1  2  1  0
  2  3  2  0
  3  4  1  0
  4  5  2  0
  5  6  1  0
  6  7  1  0
  7  8  2  0
  8  9  1  0
  9 10  1  0
  9 11  2  0
 11 12  1  0
 12 13  2  0
  6 14  2  0
 14  2  1  0
 13  7  1  0
  1 15  1  0
  1 16  1  0
  1 17  1  0
  3 18  1  0
  4 19  1  0
  8 20  1  0
 10 21  1  0
 10 22  1  0
 10 23  1  0
 11 24  1  0
 12 25  1  0
 14 26  1  0
M  END
$$$$

     RDKit          3D

 26 27  0  0  0  0  0  0  0  0999 V2000
    2.8536    1.7245   -2.8565 C   0  0  0  0  0  0  0  0  0  0  0  0
    2.1562    1.5661   -1.5448 C   0  0  0  0  0  0  0  0  0  0  0  0
    2.4727    2.3773   -0.4527 C   0  0  0  0  0  0  0  0  0  0  0  0
    1.7956    2.1955    0.7455 C   0  0  0  0  0  0  0  0  0  0  0  0
    0.8411    1.2876    0.9308 N   0  0  0  0  0  0  0  0  0  0  0  0
    0.5265    0.5101   -0.1190 C   0  0  0  0  0  0  0  0  0  0  0  0
   -0.5559   -0.4918    0.0934 C   0  0  0  0  0  0  0  0  0  0  0  0
   -1.1082   -0.6568    1.3551 C   0  0  0  0  0  0  0  0  0  0  0  0
   -2.1243   -1.5900    1.5558 C   0  0  0  0  0  0  0  0  0  0  0  0
   -2.7529   -1.8034    2.8915 C   0  0  0  0  0  0  0  0  0  0  0  0
   -2.5397   -2.3173    0.4387 C   0  0  0  0  0  0  0  0  0  0  0  0
   -1.9300   -2.0838   -0.7862 C   0  0  0  0  0  0  0  0  0  0  0  0
   -0.9525   -1.1979   -0.9771 N   0  0  0  0  0  0  0  0  0  0  0  0
    1.1526    0.6140   -1.3515 C   0  0  0  0  0  0  0  0  0  0  0  0
    2.3783    2.4946   -3.4619 H   0  0  0  0  0  0  0  0  0  0  0  0
    2.8439    0.7962   -3.4311 H   0  0  0  0  0  0  0  0  0  0  0  0
    3.8967    2.0197   -2.7154 H   0  0  0  0  0  0  0  0  0  0  0  0
    3.2387    3.1421   -0.5403 H   0  0  0  0  0  0  0  0  0  0  0  0
    2.0267    2.8092    1.6144 H   0  0  0  0  0  0  0  0  0  0  0  0
   -0.7473   -0.0568    2.1820 H   0  0  0  0  0  0  0  0  0  0  0  0
   -3.7799   -1.4433    2.8988 H   0  0  0  0  0  0  0  0  0  0  0  0
   -2.2085   -1.2847    3.6827 H   0  0  0  0  0  0  0  0  0  0  0  0
   -2.7830   -2.8657    3.1428 H   0  0  0  0  0  0  0  0  0  0  0  0
   -3.3317   -3.0537    0.5325 H   0  0  0  0  0  0  0  0  0  0  0  0
   -2.2334   -2.6405   -1.6697 H   0  0  0  0  0  0  0  0  0  0  0  0
    0.8648   -0.0513   -2.1579 H   0  0  0  0  0  0  0  0  0  0  0  0
  1  2  1  0
  2  3  2  0
  3  4  1  0
  4  5  2  0
  5  6  1  0
  6  7  1  0
  7  8  2  0
  8  9  1  0
  9 10  1  0
  9 11  2  0
 11 12  1  0
 12 13  2  0
  6 14  2  0
 14  2  1  0
 13  7  1  0
  1 15  1  0
  1 16  1  0
  1 17  1  0
  3 18  1  0
  4 19  1  0
  8 20  1  0
 10 21  1  0
 10 22  1  0
 10 23  1  0
 11 24  1  0
 12 25  1  0
 14 26  1  0
M  END
$$$$

     RDKit          3D

 26 27  0  0  0  0  0  0  0  0999 V2000
    0.6800    2.0089    3.8442 C   0  0  0  0  0  0  0  0  0  0  0  0
    0.7817    0.9156    2.8339 C   0  0  0  0  0  0  0  0  0  0  0  0
    1.4817   -0.2591    3.1178 C   0  0  0  0  0  0  0  0  0  0  0  0
    1.5594   -1.2502    2.1507 C   0  0  0  0  0  0  0  0  0  0  0  0
    1.0018   -1.1590    0.9447 N   0  0  0  0  0  0  0  0  0  0  0  0
    0.3319   -0.0315    0.6641 C   0  0  0  0  0  0  0  0  0  0  0  0
   -0.2777    0.0652   -0.6919 C   0  0  0  0  0  0  0  0  0  0  0  0
   -0.2540   -1.0272   -1.5471 C   0  0  0  0  0  0  0  0  0  0  0  0
   -0.8211   -0.9305   -2.8176 C   0  0  0  0  0  0  0  0  0  0  0  0
   -0.8221   -2.0772   -3.7718 C   0  0  0  0  0  0  0  0  0  0  0  0
   -1.3944    0.2955   -3.1621 C   0  0  0  0  0  0  0  0  0  0  0  0
   -1.3716    1.3344   -2.2423 C   0  0  0  0  0  0  0  0  0  0  0  0
   -0.8368    1.2393   -1.0262 N   0  0  0  0  0  0  0  0  0  0  0  0
    0.1963    1.0100    1.5702 C   0  0  0  0  0  0  0  0  0  0  0  0
    1.6492    2.4853    4.0019 H   0  0  0  0  0  0  0  0  0  0  0  0
   -0.0297    2.7807    3.5379 H   0  0  0  0  0  0  0  0  0  0  0  0
    0.3533    1.6189    4.8083 H   0  0  0  0  0  0  0  0  0  0  0  0
    1.9602   -0.3912    4.0829 H   0  0  0  0  0  0  0  0  0  0  0  0
    2.0974   -2.1738    2.3450 H   0  0  0  0  0  0  0  0  0  0  0  0
    0.2078   -1.9538   -1.2247 H   0  0  0  0  0  0  0  0  0  0  0  0
   -1.8380   -2.3268   -4.0730 H   0  0  0  0  0  0  0  0  0  0  0  0
   -0.2670   -1.8338   -4.6785 H   0  0  0  0  0  0  0  0  0  0  0  0
   -0.3701   -2.9701   -3.3316 H   0  0  0  0  0  0  0  0  0  0  0  0
   -1.8456    0.4345   -4.1395 H   0  0  0  0  0  0  0  0  0  0  0  0
   -1.8069    2.3016   -2.4861 H   0  0  0  0  0  0  0  0  0  0  0  0
   -0.3656    1.8944    1.2908 H   0  0  0  0  0  0  0  0  0  0  0  0
  1  2  1  0
  2  3  2  0
  3  4  1  0
  4  5  2  0
  5  6  1  0
  6  7  1  0
  7  8  2  0
  8  9  1  0
  9 10  1  0
  9 11  2  0
 11 12  1  0
 12 13  2  0
  6 14  2  0
 14  2  1  0
 13  7  1  0
  1 15  1  0
  1 16  1  0
  1 17  1  0
  3 18  1  0
  4 19  1  0
  8 20  1  0
 10 21  1  0
 10 22  1  0
 10 23  1  0
 11 24  1  0
 12 25  1  0
 14 26  1  0
M  END
$$$$

     RDKit          3D

 26 27  0  0  0  0  0  0  0  0999 V2000
   -1.5041   -4.1214   -0.0240 C   0  0  0  0  0  0  0  0  0  0  0  0
   -0.4866   -3.0362   -0.1269 C   0  0  0  0  0  0  0  0  0  0  0  0
    0.8511   -3.3331   -0.3948 C   0  0  0  0  0  0  0  0  0  0  0  0
    1.7715   -2.2979   -0.4676 C   0  0  0  0  0  0  0  0  0  0  0  0
    1.4633   -1.0120   -0.3012 N   0  0  0  0  0  0  0  0  0  0  0  0
    0.1773   -0.7213   -0.0461 C   0  0  0  0  0  0  0  0  0  0  0  0
   -0.1627    0.7181    0.1383 C   0  0  0  0  0  0  0  0  0  0  0  0
    0.7958    1.6945   -0.0872 C   0  0  0  0  0  0  0  0  0  0  0  0
    0.4747    3.0419    0.0836 C   0  0  0  0  0  0  0  0  0  0  0  0
    1.4660    4.1294   -0.1603 C   0  0  0  0  0  0  0  0  0  0  0  0
   -0.8300    3.3319    0.4882 C   0  0  0  0  0  0  0  0  0  0  0  0
   -1.7222    2.2883    0.6931 C   0  0  0  0  0  0  0  0  0  0  0  0
   -1.4151    1.0031    0.5254 N   0  0  0  0  0  0  0  0  0  0  0  0
   -0.8110   -1.6897    0.0464 C   0  0  0  0  0  0  0  0  0  0  0  0
   -1.3159   -4.7467    0.8506 H   0  0  0  0  0  0  0  0  0  0  0  0
   -2.5182   -3.7258    0.0575 H   0  0  0  0  0  0  0  0  0  0  0  0
   -1.4637   -4.7760   -0.8958 H   0  0  0  0  0  0  0  0  0  0  0  0
    1.1634   -4.3625   -0.5420 H   0  0  0  0  0  0  0  0  0  0  0  0
    2.8205   -2.5024   -0.6677 H   0  0  0  0  0  0  0  0  0  0  0  0
    1.7931    1.4041   -0.3989 H   0  0  0  0  0  0  0  0  0  0  0  0
    1.1184    4.8006   -0.9451 H   0  0  0  0  0  0  0  0  0  0  0  0
    2.4372    3.7311   -0.4634 H   0  0  0  0  0  0  0  0  0  0  0  0
    1.6155    4.7354    0.7352 H   0  0  0  0  0  0  0  0  0  0  0  0
   -1.1409    4.3603    0.6397 H   0  0  0  0  0  0  0  0  0  0  0  0
   -2.7424    2.4852    1.0110 H   0  0  0  0  0  0  0  0  0  0  0  0
   -1.8350   -1.3989    0.2522 H   0  0  0  0  0  0  0  0  0  0  0  0
  1  2  1  0
  2  3  2  0
  3  4  1  0
  4  5  2  0
  5  6  1  0
  6  7  1  0
  7  8  2  0
  8  9  1  0
  9 10  1  0
  9 11  2  0
 11 12  1  0
 12 13  2  0
  6 14  2  0
 14  2  1  0
 13  7  1  0
  1 15  1  0
  1 16  1  0
  1 17  1  0
  3 18  1  0
  4 19  1  0
  8 20  1  0
 10 21  1  0
 10 22  1  0
 10 23  1  0
 11 24  1  0
 12 25  1  0
 14 26  1  0
M  END
$$$$

     RDKit          3D

 26 27  0  0  0  0  0  0  0  0999 V2000
   -0.6318    4.1173   -1.3910 C   0  0  0  0  0  0  0  0  0  0  0  0
   -0.7465    2.6296   -1.4198 C   0  0  0  0  0  0  0  0  0  0  0  0
   -1.4451    1.9842   -2.4422 C   0  0  0  0  0  0  0  0  0  0  0  0
   -1.5316    0.5992   -2.4346 C   0  0  0  0  0  0  0  0  0  0  0  0
   -0.9824   -0.1762   -1.5020 N   0  0  0  0  0  0  0  0  0  0  0  0
   -0.3031    0.4374   -0.5203 C   0  0  0  0  0  0  0  0  0  0  0  0
    0.3141   -0.4359    0.5171 C   0  0  0  0  0  0  0  0  0  0  0  0
    0.1671   -1.8138    0.4483 C   0  0  0  0  0  0  0  0  0  0  0  0
    0.7439   -2.6288    1.4234 C   0  0  0  0  0  0  0  0  0  0  0  0
    0.6000   -4.1131    1.4053 C   0  0  0  0  0  0  0  0  0  0  0  0
    1.4625   -1.9873    2.4343 C   0  0  0  0  0  0  0  0  0  0  0  0
    1.5608   -0.6035    2.4194 C   0  0  0  0  0  0  0  0  0  0  0  0
    1.0060    0.1762    1.4910 N   0  0  0  0  0  0  0  0  0  0  0  0
   -0.1651    1.8161   -0.4461 C   0  0  0  0  0  0  0  0  0  0  0  0
   -0.1123    4.4820   -2.2769 H   0  0  0  0  0  0  0  0  0  0  0  0
   -1.6163    4.5869   -1.3819 H   0  0  0  0  0  0  0  0  0  0  0  0
   -0.0855    4.4633   -0.5107 H   0  0  0  0  0  0  0  0  0  0  0  0
   -1.9131    2.5629   -3.2332 H   0  0  0  0  0  0  0  0  0  0  0  0
   -2.0700    0.0741   -3.2193 H   0  0  0  0  0  0  0  0  0  0  0  0
   -0.3990   -2.2556   -0.3641 H   0  0  0  0  0  0  0  0  0  0  0  0
   -0.0204   -4.4553    2.2337 H   0  0  0  0  0  0  0  0  0  0  0  0
    1.5704   -4.6010    1.5100 H   0  0  0  0  0  0  0  0  0  0  0  0
    0.1448   -4.4669    0.4770 H   0  0  0  0  0  0  0  0  0  0  0  0
    1.9372   -2.5673    3.2196 H   0  0  0  0  0  0  0  0  0  0  0  0
    2.1183   -0.0798    3.1919 H   0  0  0  0  0  0  0  0  0  0  0  0
    0.3972    2.2555    0.3710 H   0  0  0  0  0  0  0  0  0  0  0  0
  1  2  1  0
  2  3  2  0
  3  4  1  0
  4  5  2  0
  5  6  1  0
  6  7  1  0
  7  8  2  0
  8  9  1  0
  9 10  1  0
  9 11  2  0
 11 12  1  0
 12 13  2  0
  6 14  2  0
 14  2  1  0
 13  7  1  0
  1 15  1  0
  1 16  1  0
  1 17  1  0
  3 18  1  0
  4 19  1  0
  8 20  1  0
 10 21  1  0
 10 22  1  0
 10 23  1  0
 11 24  1  0
 12 25  1  0
 14 26  1  0
M  END
$$$$
