
     RDKit          3D

 28 30  0  0  0  0  0  0  0  0999 V2000
    2.3599   -2.6464    1.6334 C   0  0  0  0  0  0  0  0  0  0  0  0
    2.2711   -1.6429    0.5310 C   0  0  0  0  0  0  0  0  0  0  0  0
    3.3066   -1.4264   -0.3325 C   0  0  0  0  0  0  0  0  0  0  0  0
    3.1838   -0.4772   -1.3575 C   0  0  0  0  0  0  0  0  0  0  0  0
    2.0839    0.2589   -1.5548 N   0  0  0  0  0  0  0  0  0  0  0  0
    1.0532    0.0751   -0.7241 C   0  0  0  0  0  0  0  0  0  0  0  0
    1.0780   -0.8689    0.3468 C   0  0  0  0  0  0  0  0  0  0  0  0
   -0.0588   -1.0134    1.1815 C   0  0  0  0  0  0  0  0  0  0  0  0
   -1.1763   -0.2664    0.9938 C   0  0  0  0  0  0  0  0  0  0  0  0
   -1.2554    0.6890   -0.0483 C   0  0  0  0  0  0  0  0  0  0  0  0
   -2.4164    1.4934   -0.2638 C   0  0  0  0  0  0  0  0  0  0  0  0
   -3.5997    1.3792    0.6410 C   0  0  0  0  0  0  0  0  0  0  0  0
   -2.3912    2.3677   -1.3207 C   0  0  0  0  0  0  0  0  0  0  0  0
   -1.2533    2.4635   -2.1308 C   0  0  0  0  0  0  0  0  0  0  0  0
   -0.1464    1.7298   -1.9435 N   0  0  0  0  0  0  0  0  0  0  0  0
   -0.1416    0.8651   -0.9310 C   0  0  0  0  0  0  0  0  0  0  0  0
    3.3358   -3.1477    1.6192 H   0  0  0  0  0  0  0  0  0  0  0  0
    1.5919   -3.4122    1.5365 H   0  0  0  0  0  0  0  0  0  0  0  0
    2.2389   -2.1826    2.6093 H   0  0  0  0  0  0  0  0  0  0  0  0
    4.2261   -1.9865   -0.2259 H   0  0  0  0  0  0  0  0  0  0  0  0
    4.0030   -0.3104   -2.0363 H   0  0  0  0  0  0  0  0  0  0  0  0
   -0.0254   -1.7342    1.9883 H   0  0  0  0  0  0  0  0  0  0  0  0
   -2.0288   -0.4051    1.6475 H   0  0  0  0  0  0  0  0  0  0  0  0
   -4.3917    2.0667    0.3185 H   0  0  0  0  0  0  0  0  0  0  0  0
   -4.0107    0.3692    0.6461 H   0  0  0  0  0  0  0  0  0  0  0  0
   -3.3430    1.6298    1.6711 H   0  0  0  0  0  0  0  0  0  0  0  0
   -3.2549    2.9842   -1.5314 H   0  0  0  0  0  0  0  0  0  0  0  0
   -1.2386    3.1488   -2.9632 H   0  0  0  0  0  0  0  0  0  0  0  0
  1  2  1  0
  2  3  2  0
  3  4  1  0
  4  5  2  0
  5  6  1  0
  6  7  2  0
  7  8  1  0
  8  9  2  0
  9 10  1  0
 10 11  2  0
 11 12  1  0
 11 13  1  0
 13 14  2  0
 14 15  1  0
 15 16  2  0
  7  2  1  0
 16 10  1  0
 16  6  1  0
  1 17  1  0
  1 18  1  0
  1 19  1  0
  3 20  1  0
  4 21  1  0
  8 22  1  0
  9 23  1  0
 12 24  1  0
 12 25  1  0
 12 26  1  0
 13 27  1  0
 14 28  1  0
M  END
$$$$

     RDKit          3D

 28 30  0  0  0  0  0  0  0  0999 V2000
   -0.5916   -3.7336   -0.9709 C   0  0  0  0  0  0  0  0  0  0  0  0
   -1.1927   -2.5824   -0.2348 C   0  0  0  0  0  0  0  0  0  0  0  0
   -2.4015   -2.6756    0.3958 C   0  0  0  0  0  0  0  0  0  0  0  0
   -2.9375   -1.5629    1.0594 C   0  0  0  0  0  0  0  0  0  0  0  0
   -2.3247   -0.3740    1.1195 N   0  0  0  0  0  0  0  0  0  0  0  0
   -1.1401   -0.2507    0.5159 C   0  0  0  0  0  0  0  0  0  0  0  0
   -0.5054   -1.3255   -0.1749 C   0  0  0  0  0  0  0  0  0  0  0  0
    0.7651   -1.1258   -0.7695 C   0  0  0  0  0  0  0  0  0  0  0  0
    1.3947    0.0744   -0.7003 C   0  0  0  0  0  0  0  0  0  0  0  0
    0.8096    1.1811   -0.0354 C   0  0  0  0  0  0  0  0  0  0  0  0
    1.4486    2.4542    0.0546 C   0  0  0  0  0  0  0  0  0  0  0  0
    2.7992    2.6762   -0.5452 C   0  0  0  0  0  0  0  0  0  0  0  0
    0.7787    3.4538    0.7141 C   0  0  0  0  0  0  0  0  0  0  0  0
   -0.4778    3.2086    1.2803 C   0  0  0  0  0  0  0  0  0  0  0  0
   -1.0967    2.0215    1.2193 N   0  0  0  0  0  0  0  0  0  0  0  0
   -0.4737    1.0317    0.5816 C   0  0  0  0  0  0  0  0  0  0  0  0
   -0.4291   -3.4896   -2.0222 H   0  0  0  0  0  0  0  0  0  0  0  0
   -1.2534   -4.6100   -0.9261 H   0  0  0  0  0  0  0  0  0  0  0  0
    0.3671   -4.0252   -0.5496 H   0  0  0  0  0  0  0  0  0  0  0  0
   -2.9501   -3.6072    0.3826 H   0  0  0  0  0  0  0  0  0  0  0  0
   -3.8900   -1.6402    1.5570 H   0  0  0  0  0  0  0  0  0  0  0  0
    1.2395   -1.9493   -1.2889 H   0  0  0  0  0  0  0  0  0  0  0  0
    2.3691    0.1900   -1.1601 H   0  0  0  0  0  0  0  0  0  0  0  0
    3.5389    1.9952   -0.1264 H   0  0  0  0  0  0  0  0  0  0  0  0
    2.7935    2.5280   -1.6231 H   0  0  0  0  0  0  0  0  0  0  0  0
    3.1367    3.7040   -0.3514 H   0  0  0  0  0  0  0  0  0  0  0  0
    1.2220    4.4376    0.7956 H   0  0  0  0  0  0  0  0  0  0  0  0
   -0.9984    3.9956    1.8028 H   0  0  0  0  0  0  0  0  0  0  0  0
  1  2  1  0
  2  3  2  0
  3  4  1  0
  4  5  2  0
  5  6  1  0
  6  7  2  0
  7  8  1  0
  8  9  2  0
  9 10  1  0
 10 11  2  0
 11 12  1  0
 11 13  1  0
 13 14  2  0
 14 15  1  0
 15 16  2  0
  7  2  1  0
 16 10  1  0
 16  6  1  0
  1 17  1  0
  1 18  1  0
  1 19  1  0
  3 20  1  0
  4 21  1  0
  8 22  1  0
  9 23  1  0
 12 24  1  0
 12 25  1  0
 12 26  1  0
 13 27  1  0
 14 28  1  0
M  END
$$$$

     RDKit          3D

 28 30  0  0  0  0  0  0  0  0999 V2000
   -1.3391    2.2423    2.9039 C   0  0  0  0  0  0  0  0  0  0  0  0
   -1.7152    1.6233    1.5979 C   0  0  0  0  0  0  0  0  0  0  0  0
   -2.9489    1.8115    1.0430 C   0  0  0  0  0  0  0  0  0  0  0  0
   -3.2715    1.2067   -0.1805 C   0  0  0  0  0  0  0  0  0  0  0  0
   -2.4196    0.4466   -0.8767 N   0  0  0  0  0  0  0  0  0  0  0  0
   -1.1983    0.2538   -0.3677 C   0  0  0  0  0  0  0  0  0  0  0  0
   -0.7823    0.8022    0.8825 C   0  0  0  0  0  0  0  0  0  0  0  0
    0.5191    0.5263    1.3711 C   0  0  0  0  0  0  0  0  0  0  0  0
    1.3924   -0.2407    0.6730 C   0  0  0  0  0  0  0  0  0  0  0  0
    1.0473   -0.7849   -0.5886 C   0  0  0  0  0  0  0  0  0  0  0  0
    1.9530   -1.5735   -1.3606 C   0  0  0  0  0  0  0  0  0  0  0  0
    3.3308   -1.8585   -0.8585 C   0  0  0  0  0  0  0  0  0  0  0  0
    1.5081   -2.0474   -2.5680 C   0  0  0  0  0  0  0  0  0  0  0  0
    0.2112   -1.7555   -3.0074 C   0  0  0  0  0  0  0  0  0  0  0  0
   -0.6599   -1.0204   -2.3048 N   0  0  0  0  0  0  0  0  0  0  0  0
   -0.2582   -0.5427   -1.1277 C   0  0  0  0  0  0  0  0  0  0  0  0
   -1.1066    1.4867    3.6527 H   0  0  0  0  0  0  0  0  0  0  0  0
   -2.1684    2.8534    3.2879 H   0  0  0  0  0  0  0  0  0  0  0  0
   -0.4687    2.8902    2.8074 H   0  0  0  0  0  0  0  0  0  0  0  0
   -3.6819    2.4278    1.5460 H   0  0  0  0  0  0  0  0  0  0  0  0
   -4.2519    1.3466   -0.6041 H   0  0  0  0  0  0  0  0  0  0  0  0
    0.8153    0.9330    2.3305 H   0  0  0  0  0  0  0  0  0  0  0  0
    2.3759   -0.4363    1.0850 H   0  0  0  0  0  0  0  0  0  0  0  0
    3.3128   -2.3990    0.0885 H   0  0  0  0  0  0  0  0  0  0  0  0
    3.8946   -0.9401   -0.6973 H   0  0  0  0  0  0  0  0  0  0  0  0
    3.8824   -2.4691   -1.5847 H   0  0  0  0  0  0  0  0  0  0  0  0
    2.1596   -2.6540   -3.1838 H   0  0  0  0  0  0  0  0  0  0  0  0
   -0.1320   -2.1280   -3.9590 H   0  0  0  0  0  0  0  0  0  0  0  0
  1  2  1  0
  2  3  2  0
  3  4  1  0
  4  5  2  0
  5  6  1  0
  6  7  2  0
  7  8  1  0
  8  9  2  0
  9 10  1  0
 10 11  2  0
 11 12  1  0
 11 13  1  0
 13 14  2  0
 14 15  1  0
 15 16  2  0
  7  2  1  0
 16 10  1  0
 16  6  1  0
  1 17  1  0
  1 18  1  0
  1 19  1  0
  3 20  1  0
  4 21  1  0
  8 22  1  0
  9 23  1  0
 12 24  1  0
 12 25  1  0
 12 26  1  0
 13 27  1  0
 14 28  1  0
M  END
$$$$

     RDKit          3D

 28 30  0  0  0  0  0  0  0  0999 V2000
    2.5767   -2.7486   -1.0209 C   0  0  0  0  0  0  0  0  0  0  0  0
    1.3778   -1.9975   -1.4995 C   0  0  0  0  0  0  0  0  0  0  0  0
    0.8120   -2.2400   -2.7169 C   0  0  0  0  0  0  0  0  0  0  0  0
   -0.3104   -1.5095   -3.1333 C   0  0  0  0  0  0  0  0  0  0  0  0
   -0.8930   -0.5590   -2.3919 N   0  0  0  0  0  0  0  0  0  0  0  0
   -0.3654   -0.3010   -1.1913 C   0  0  0  0  0  0  0  0  0  0  0  0
    0.7744   -0.9892   -0.6770 C   0  0  0  0  0  0  0  0  0  0  0  0
    1.2673   -0.6703    0.6129 C   0  0  0  0  0  0  0  0  0  0  0  0
    0.6501    0.2494    1.3978 C   0  0  0  0  0  0  0  0  0  0  0  0
   -0.4846    0.9633    0.9407 C   0  0  0  0  0  0  0  0  0  0  0  0
   -1.1560    1.9332    1.7480 C   0  0  0  0  0  0  0  0  0  0  0  0
   -0.7003    2.2058    3.1430 C   0  0  0  0  0  0  0  0  0  0  0  0
   -2.2294    2.5838    1.1946 C   0  0  0  0  0  0  0  0  0  0  0  0
   -2.6314    2.2927   -0.1141 C   0  0  0  0  0  0  0  0  0  0  0  0
   -2.0302    1.3762   -0.8874 N   0  0  0  0  0  0  0  0  0  0  0  0
   -0.9950    0.7142   -0.3734 C   0  0  0  0  0  0  0  0  0  0  0  0
    2.3627   -3.3057   -0.1096 H   0  0  0  0  0  0  0  0  0  0  0  0
    3.4078   -2.0765   -0.8104 H   0  0  0  0  0  0  0  0  0  0  0  0
    2.9112   -3.4663   -1.7817 H   0  0  0  0  0  0  0  0  0  0  0  0
    1.2280   -2.9973   -3.3686 H   0  0  0  0  0  0  0  0  0  0  0  0
   -0.7493   -1.7061   -4.0971 H   0  0  0  0  0  0  0  0  0  0  0  0
    2.1486   -1.1788    0.9775 H   0  0  0  0  0  0  0  0  0  0  0  0
    1.0288    0.4409    2.3938 H   0  0  0  0  0  0  0  0  0  0  0  0
   -1.3543    2.9524    3.6136 H   0  0  0  0  0  0  0  0  0  0  0  0
   -0.7242    1.3028    3.7571 H   0  0  0  0  0  0  0  0  0  0  0  0
    0.3156    2.5930    3.1702 H   0  0  0  0  0  0  0  0  0  0  0  0
   -2.7665    3.3258    1.7722 H   0  0  0  0  0  0  0  0  0  0  0  0
   -3.4710    2.8123   -0.5484 H   0  0  0  0  0  0  0  0  0  0  0  0
  1  2  1  0
  2  3  2  0
  3  4  1  0
  4  5  2  0
  5  6  1  0
  6  7  2  0
  7  8  1  0
  8  9  2  0
  9 10  1  0
 10 11  2  0
 11 12  1  0
 11 13  1  0
 13 14  2  0
 14 15  1  0
 15 16  2  0
  7  2  1  0
 16 10  1  0
 16  6  1  0
  1 17  1  0
  1 18  1  0
  1 19  1  0
  3 20  1  0
  4 21  1  0
  8 22  1  0
  9 23  1  0
 12 24  1  0
 12 25  1  0
 12 26  1  0
 13 27  1  0
 14 28  1  0
M  END
$$$$

     RDKit          3D

 28 30  0  0  0  0  0  0  0  0999 V2000
   -1.2511    2.9690   -2.2055 C   0  0  0  0  0  0  0  0  0  0  0  0
   -1.5952    1.5876   -1.7532 C   0  0  0  0  0  0  0  0  0  0  0  0
   -2.7426    0.9627   -2.1524 C   0  0  0  0  0  0  0  0  0  0  0  0
   -3.0361   -0.3291   -1.6949 C   0  0  0  0  0  0  0  0  0  0  0  0
   -2.2437   -1.0200   -0.8653 N   0  0  0  0  0  0  0  0  0  0  0  0
   -1.1116   -0.4383   -0.4581 C   0  0  0  0  0  0  0  0  0  0  0  0
   -0.7210    0.8704   -0.8717 C   0  0  0  0  0  0  0  0  0  0  0  0
    0.5020    1.4170   -0.4113 C   0  0  0  0  0  0  0  0  0  0  0  0
    1.3214    0.7203    0.4148 C   0  0  0  0  0  0  0  0  0  0  0  0
    0.9813   -0.5780    0.8679 C   0  0  0  0  0  0  0  0  0  0  0  0
    1.8155   -1.3284    1.7521 C   0  0  0  0  0  0  0  0  0  0  0  0
    3.1070   -0.7638    2.2451 C   0  0  0  0  0  0  0  0  0  0  0  0
    1.3806   -2.5737    2.1286 C   0  0  0  0  0  0  0  0  0  0  0  0
    0.1626   -3.0703    1.6538 C   0  0  0  0  0  0  0  0  0  0  0  0
   -0.6366   -2.3919    0.8218 N   0  0  0  0  0  0  0  0  0  0  0  0
   -0.2449   -1.1770    0.4358 C   0  0  0  0  0  0  0  0  0  0  0  0
   -1.1797    3.6595   -1.3657 H   0  0  0  0  0  0  0  0  0  0  0  0
   -0.3010    2.9929   -2.7356 H   0  0  0  0  0  0  0  0  0  0  0  0
   -2.0245    3.3520   -2.8854 H   0  0  0  0  0  0  0  0  0  0  0  0
   -3.4286    1.4645   -2.8219 H   0  0  0  0  0  0  0  0  0  0  0  0
   -3.9434   -0.8178   -2.0106 H   0  0  0  0  0  0  0  0  0  0  0  0
    0.7841    2.4119   -0.7321 H   0  0  0  0  0  0  0  0  0  0  0  0
    2.2554    1.1659    0.7399 H   0  0  0  0  0  0  0  0  0  0  0  0
    2.9552    0.1613    2.7983 H   0  0  0  0  0  0  0  0  0  0  0  0
    3.5988   -1.4802    2.9189 H   0  0  0  0  0  0  0  0  0  0  0  0
    3.7942   -0.5457    1.4271 H   0  0  0  0  0  0  0  0  0  0  0  0
    1.9779   -3.1712    2.8047 H   0  0  0  0  0  0  0  0  0  0  0  0
   -0.1760   -4.0497    1.9551 H   0  0  0  0  0  0  0  0  0  0  0  0
  1  2  1  0
  2  3  2  0
  3  4  1  0
  4  5  2  0
  5  6  1  0
  6  7  2  0
  7  8  1  0
  8  9  2  0
  9 10  1  0
 10 11  2  0
 11 12  1  0
 11 13  1  0
 13 14  2  0
 14 15  1  0
 15 16  2  0
  7  2  1  0
 16 10  1  0
 16  6  1  0
  1 17  1  0
  1 18  1  0
  1 19  1  0
  3 20  1  0
  4 21  1  0
  8 22  1  0
  9 23  1  0
 12 24  1  0
 12 25  1  0
 12 26  1  0
 13 27  1  0
 14 28  1  0
M  END
$$$$

     RDKit          3D

 28 30  0  0  0  0  0  0  0  0999 V2000
   -0.4630    0.8833    3.7799 C   0  0  0  0  0  0  0  0  0  0  0  0
   -0.2784   -0.2551    2.8312 C   0  0  0  0  0  0  0  0  0  0  0  0
   -0.2314   -1.5504    3.2601 C   0  0  0  0  0  0  0  0  0  0  0  0
   -0.0520   -2.5918    2.3382 C   0  0  0  0  0  0  0  0  0  0  0  0
    0.0673   -2.3975    1.0202 N   0  0  0  0  0  0  0  0  0  0  0  0
    0.0202   -1.1423    0.5667 C   0  0  0  0  0  0  0  0  0  0  0  0
   -0.1541   -0.0134    1.4225 C   0  0  0  0  0  0  0  0  0  0  0  0
   -0.2041    1.2881    0.8636 C   0  0  0  0  0  0  0  0  0  0  0  0
   -0.0824    1.4887   -0.4726 C   0  0  0  0  0  0  0  0  0  0  0  0
    0.1052    0.4071   -1.3694 C   0  0  0  0  0  0  0  0  0  0  0  0
    0.2512    0.5885   -2.7799 C   0  0  0  0  0  0  0  0  0  0  0  0
    0.2093    1.9540   -3.3822 C   0  0  0  0  0  0  0  0  0  0  0  0
    0.4346   -0.5328   -3.5498 C   0  0  0  0  0  0  0  0  0  0  0  0
    0.4690   -1.7972   -2.9534 C   0  0  0  0  0  0  0  0  0  0  0  0
    0.3308   -1.9963   -1.6359 N   0  0  0  0  0  0  0  0  0  0  0  0
    0.1575   -0.9284   -0.8576 C   0  0  0  0  0  0  0  0  0  0  0  0
   -0.5511    0.5105    4.8086 H   0  0  0  0  0  0  0  0  0  0  0  0
    0.3743    1.5754    3.7422 H   0  0  0  0  0  0  0  0  0  0  0  0
   -1.3664    1.4460    3.5516 H   0  0  0  0  0  0  0  0  0  0  0  0
   -0.3345   -1.7783    4.3122 H   0  0  0  0  0  0  0  0  0  0  0  0
   -0.0018   -3.6117    2.6816 H   0  0  0  0  0  0  0  0  0  0  0  0
   -0.3408    2.1390    1.5184 H   0  0  0  0  0  0  0  0  0  0  0  0
   -0.1275    2.4954   -0.8647 H   0  0  0  0  0  0  0  0  0  0  0  0
    0.9899    2.5966   -2.9779 H   0  0  0  0  0  0  0  0  0  0  0  0
   -0.7456    2.4461   -3.2018 H   0  0  0  0  0  0  0  0  0  0  0  0
    0.3546    1.8903   -4.4695 H   0  0  0  0  0  0  0  0  0  0  0  0
    0.5582   -0.4380   -4.6210 H   0  0  0  0  0  0  0  0  0  0  0  0
    0.6110   -2.6759   -3.5615 H   0  0  0  0  0  0  0  0  0  0  0  0
  1  2  1  0
  2  3  2  0
  3  4  1  0
  4  5  2  0
  5  6  1  0
  6  7  2  0
  7  8  1  0
  8  9  2  0
  9 10  1  0
 10 11  2  0
 11 12  1  0
 11 13  1  0
 13 14  2  0
 14 15  1  0
 15 16  2  0
  7  2  1  0
 16 10  1  0
 16  6  1  0
  1 17  1  0
  1 18  1  0
  1 19  1  0
  3 20  1  0
  4 21  1  0
  8 22  1  0
  9 23  1  0
 12 24  1  0
 12 25  1  0
 12 26  1  0
 13 27  1  0
 14 28  1  0
M  END
$$$$

     RDKit          3D

 28 30  0  0  0  0  0  0  0  0999 V2000
   -3.4897   -0.2806   -1.7314 C   0  0  0  0  0  0  0  0  0  0  0  0
   -2.0204   -0.3757   -1.9808 C   0  0  0  0  0  0  0  0  0  0  0  0
   -1.5160   -0.6713   -3.2164 C   0  0  0  0  0  0  0  0  0  0  0  0
   -0.1303   -0.7649   -3.4049 C   0  0  0  0  0  0  0  0  0  0  0  0
    0.7641   -0.5790   -2.4281 N   0  0  0  0  0  0  0  0  0  0  0  0
    0.3065   -0.2848   -1.2090 C   0  0  0  0  0  0  0  0  0  0  0  0
   -1.0849   -0.1673   -0.9136 C   0  0  0  0  0  0  0  0  0  0  0  0
   -1.4978    0.1441    0.4066 C   0  0  0  0  0  0  0  0  0  0  0  0
   -0.5960    0.3388    1.4015 C   0  0  0  0  0  0  0  0  0  0  0  0
    0.7972    0.2413    1.1659 C   0  0  0  0  0  0  0  0  0  0  0  0
    1.7666    0.4434    2.1954 C   0  0  0  0  0  0  0  0  0  0  0  0
    1.3393    0.7812    3.5862 C   0  0  0  0  0  0  0  0  0  0  0  0
    3.0879    0.3123    1.8539 C   0  0  0  0  0  0  0  0  0  0  0  0
    3.4492   -0.0099    0.5402 C   0  0  0  0  0  0  0  0  0  0  0  0
    2.5621   -0.1980   -0.4440 N   0  0  0  0  0  0  0  0  0  0  0  0
    1.2694   -0.0754   -0.1483 C   0  0  0  0  0  0  0  0  0  0  0  0
   -3.8140   -1.0069   -0.9875 H   0  0  0  0  0  0  0  0  0  0  0  0
   -4.0520   -0.4680   -2.6561 H   0  0  0  0  0  0  0  0  0  0  0  0
   -3.7721    0.7080   -1.3688 H   0  0  0  0  0  0  0  0  0  0  0  0
   -2.1834   -0.8373   -4.0512 H   0  0  0  0  0  0  0  0  0  0  0  0
    0.2657   -1.0002   -4.3789 H   0  0  0  0  0  0  0  0  0  0  0  0
   -2.5562    0.2219    0.6212 H   0  0  0  0  0  0  0  0  0  0  0  0
   -0.9485    0.5758    2.3982 H   0  0  0  0  0  0  0  0  0  0  0  0
    2.2204    0.9467    4.2219 H   0  0  0  0  0  0  0  0  0  0  0  0
    0.7512   -0.0182    4.0338 H   0  0  0  0  0  0  0  0  0  0  0  0
    0.7368    1.6867    3.6136 H   0  0  0  0  0  0  0  0  0  0  0  0
    3.8547    0.4529    2.6031 H   0  0  0  0  0  0  0  0  0  0  0  0
    4.4904   -0.1157    0.2779 H   0  0  0  0  0  0  0  0  0  0  0  0
  1  2  1  0
  2  3  2  0
  3  4  1  0
  4  5  2  0
  5  6  1  0
  6  7  2  0
  7  8  1  0
  8  9  2  0
  9 10  1  0
 10 11  2  0
 11 12  1  0
 11 13  1  0
 13 14  2  0
 14 15  1  0
 15 16  2  0
  7  2  1  0
 16 10  1  0
 16  6  1  0
  1 17  1  0
  1 18  1  0
  1 19  1  0
  3 20  1  0
  4 21  1  0
  8 22  1  0
  9 23  1  0
 12 24  1  0
 12 25  1  0
 12 26  1  0
 13 27  1  0
 14 28  1  0
M  END
$$$$

     RDKit          3D

 28 30  0  0  0  0  0  0  0  0999 V2000
   -0.5668   -0.3736    3.8412 C   0  0  0  0  0  0  0  0  0  0  0  0
   -1.2698   -0.4163    2.5240 C   0  0  0  0  0  0  0  0  0  0  0  0
   -2.6036   -0.6866    2.4192 C   0  0  0  0  0  0  0  0  0  0  0  0
   -3.2138   -0.7453    1.1586 C   0  0  0  0  0  0  0  0  0  0  0  0
   -2.5595   -0.5427    0.0096 N   0  0  0  0  0  0  0  0  0  0  0  0
   -1.2527   -0.2725    0.0749 C   0  0  0  0  0  0  0  0  0  0  0  0
   -0.5422   -0.1850    1.3103 C   0  0  0  0  0  0  0  0  0  0  0  0
    0.8400    0.1222    1.3045 C   0  0  0  0  0  0  0  0  0  0  0  0
    1.5149    0.3274    0.1452 C   0  0  0  0  0  0  0  0  0  0  0  0
    0.8656    0.2518   -1.1104 C   0  0  0  0  0  0  0  0  0  0  0  0
    1.5532    0.4669   -2.3438 C   0  0  0  0  0  0  0  0  0  0  0  0
    3.0086    0.8045   -2.3625 C   0  0  0  0  0  0  0  0  0  0  0  0
    0.8224    0.3641   -3.4988 C   0  0  0  0  0  0  0  0  0  0  0  0
   -0.5425    0.0617   -3.4475 C   0  0  0  0  0  0  0  0  0  0  0  0
   -1.2134   -0.1441   -2.3056 N   0  0  0  0  0  0  0  0  0  0  0  0
   -0.5346   -0.0516   -1.1630 C   0  0  0  0  0  0  0  0  0  0  0  0
   -0.1171    0.6000    4.0248 H   0  0  0  0  0  0  0  0  0  0  0  0
   -1.2699   -0.5743    4.6611 H   0  0  0  0  0  0  0  0  0  0  0  0
    0.2259   -1.1176    3.8914 H   0  0  0  0  0  0  0  0  0  0  0  0
   -3.1932   -0.8627    3.3092 H   0  0  0  0  0  0  0  0  0  0  0  0
   -4.2675   -0.9592    1.0797 H   0  0  0  0  0  0  0  0  0  0  0  0
    1.3679    0.1879    2.2482 H   0  0  0  0  0  0  0  0  0  0  0  0
    2.5735    0.5537    0.1799 H   0  0  0  0  0  0  0  0  0  0  0  0
    3.3573    0.9191   -3.3976 H   0  0  0  0  0  0  0  0  0  0  0  0
    3.2111    1.7392   -1.8379 H   0  0  0  0  0  0  0  0  0  0  0  0
    3.6146    0.0288   -1.8968 H   0  0  0  0  0  0  0  0  0  0  0  0
    1.3020    0.5195   -4.4568 H   0  0  0  0  0  0  0  0  0  0  0  0
   -1.1108   -0.0150   -4.3612 H   0  0  0  0  0  0  0  0  0  0  0  0
  1  2  1  0
  2  3  2  0
  3  4  1  0
  4  5  2  0
  5  6  1  0
  6  7  2  0
  7  8  1  0
  8  9  2  0
  9 10  1  0
 10 11  2  0
 11 12  1  0
 11 13  1  0
 13 14  2  0
 14 15  1  0
 15 16  2  0
  7  2  1  0
 16 10  1  0
 16  6  1  0
  1 17  1  0
  1 18  1  0
  1 19  1  0
  3 20  1  0
  4 21  1  0
  8 22  1  0
  9 23  1  0
 12 24  1  0
 12 25  1  0
 12 26  1  0
 13 27  1  0
 14 28  1  0
M  END
$$$$

     RDKit          3D

 28 30  0  0  0  0  0  0  0  0999 V2000
   -2.2610    0.3329    3.1701 C   0  0  0  0  0  0  0  0  0  0  0  0
   -2.2778   -0.0224    1.7202 C   0  0  0  0  0  0  0  0  0  0  0  0
   -3.4293   -0.3853    1.0816 C   0  0  0  0  0  0  0  0  0  0  0  0
   -3.4061   -0.7111   -0.2812 C   0  0  0  0  0  0  0  0  0  0  0  0
   -2.2945   -0.6963   -1.0256 N   0  0  0  0  0  0  0  0  0  0  0  0
   -1.1503   -0.3422   -0.4332 C   0  0  0  0  0  0  0  0  0  0  0  0
   -1.0703    0.0124    0.9464 C   0  0  0  0  0  0  0  0  0  0  0  0
    0.1790    0.3868    1.5018 C   0  0  0  0  0  0  0  0  0  0  0  0
    1.3070    0.4223    0.7471 C   0  0  0  0  0  0  0  0  0  0  0  0
    1.2884    0.0816   -0.6281 C   0  0  0  0  0  0  0  0  0  0  0  0
    2.4576    0.1173   -1.4486 C   0  0  0  0  0  0  0  0  0  0  0  0
    3.7749    0.5321   -0.8792 C   0  0  0  0  0  0  0  0  0  0  0  0
    2.3152   -0.2293   -2.7670 C   0  0  0  0  0  0  0  0  0  0  0  0
    1.0638   -0.6040   -3.2661 C   0  0  0  0  0  0  0  0  0  0  0  0
   -0.0470   -0.6505   -2.5204 N   0  0  0  0  0  0  0  0  0  0  0  0
    0.0531   -0.3105   -1.2363 C   0  0  0  0  0  0  0  0  0  0  0  0
   -1.5875   -0.3136    3.7308 H   0  0  0  0  0  0  0  0  0  0  0  0
   -3.2649    0.2268    3.6049 H   0  0  0  0  0  0  0  0  0  0  0  0
   -1.9423    1.3630    3.3261 H   0  0  0  0  0  0  0  0  0  0  0  0
   -4.3619   -0.4229    1.6271 H   0  0  0  0  0  0  0  0  0  0  0  0
   -4.3179   -0.9906   -0.7833 H   0  0  0  0  0  0  0  0  0  0  0  0
    0.2268    0.6535    2.5496 H   0  0  0  0  0  0  0  0  0  0  0  0
    2.2438    0.7190    1.2022 H   0  0  0  0  0  0  0  0  0  0  0  0
    3.7386    1.5510   -0.4973 H   0  0  0  0  0  0  0  0  0  0  0  0
    4.5547    0.4856   -1.6496 H   0  0  0  0  0  0  0  0  0  0  0  0
    4.0806   -0.1148   -0.0593 H   0  0  0  0  0  0  0  0  0  0  0  0
    3.1718   -0.2135   -3.4285 H   0  0  0  0  0  0  0  0  0  0  0  0
    0.9556   -0.8772   -4.3042 H   0  0  0  0  0  0  0  0  0  0  0  0
  1  2  1  0
  2  3  2  0
  3  4  1  0
  4  5  2  0
  5  6  1  0
  6  7  2  0
  7  8  1  0
  8  9  2  0
  9 10  1  0
 10 11  2  0
 11 12  1  0
 11 13  1  0
 13 14  2  0
 14 15  1  0
 15 16  2  0
  7  2  1  0
 16 10  1  0
 16  6  1  0
  1 17  1  0
  1 18  1  0
  1 19  1  0
  3 20  1  0
  4 21  1  0
  8 22  1  0
  9 23  1  0
 12 24  1  0
 12 25  1  0
 12 26  1  0
 13 27  1  0
 14 28  1  0
M  END
$$$$

     RDKit          3D

 28 30  0  0  0  0  0  0  0  0999 V2000
    1.2905    0.5557    3.6529 C   0  0  0  0  0  0  0  0  0  0  0  0
    1.6884    0.6350    2.2154 C   0  0  0  0  0  0  0  0  0  0  0  0
    2.9455    1.0145    1.8375 C   0  0  0  0  0  0  0  0  0  0  0  0
    3.2830    1.0787    0.4786 C   0  0  0  0  0  0  0  0  0  0  0  0
    2.4310    0.7803   -0.5087 N   0  0  0  0  0  0  0  0  0  0  0  0
    1.1948    0.4040   -0.1768 C   0  0  0  0  0  0  0  0  0  0  0  0
    0.7541    0.3019    1.1780 C   0  0  0  0  0  0  0  0  0  0  0  0
   -0.5707   -0.1220    1.4501 C   0  0  0  0  0  0  0  0  0  0  0  0
   -1.4290   -0.4466    0.4497 C   0  0  0  0  0  0  0  0  0  0  0  0
   -1.0469   -0.3609   -0.9112 C   0  0  0  0  0  0  0  0  0  0  0  0
   -1.9266   -0.7032   -1.9820 C   0  0  0  0  0  0  0  0  0  0  0  0
   -3.3037   -1.2099   -1.7073 C   0  0  0  0  0  0  0  0  0  0  0  0
   -1.4534   -0.5618   -3.2617 C   0  0  0  0  0  0  0  0  0  0  0  0
   -0.1505   -0.1056   -3.4855 C   0  0  0  0  0  0  0  0  0  0  0  0
    0.7005    0.2071   -2.5005 N   0  0  0  0  0  0  0  0  0  0  0  0
    0.2728    0.0785   -1.2447 C   0  0  0  0  0  0  0  0  0  0  0  0
    0.4414    1.2004    3.8714 H   0  0  0  0  0  0  0  0  0  0  0  0
    2.1228    0.8617    4.3007 H   0  0  0  0  0  0  0  0  0  0  0  0
    1.0100   -0.4587    3.9327 H   0  0  0  0  0  0  0  0  0  0  0  0
    3.6869    1.2621    2.5845 H   0  0  0  0  0  0  0  0  0  0  0  0
    4.2728    1.3810    0.1810 H   0  0  0  0  0  0  0  0  0  0  0  0
   -0.9017   -0.1861    2.4790 H   0  0  0  0  0  0  0  0  0  0  0  0
   -2.4300   -0.7784    0.6947 H   0  0  0  0  0  0  0  0  0  0  0  0
   -3.8215   -1.4268   -2.6522 H   0  0  0  0  0  0  0  0  0  0  0  0
   -3.9010   -0.4793   -1.1632 H   0  0  0  0  0  0  0  0  0  0  0  0
   -3.2859   -2.1249   -1.1171 H   0  0  0  0  0  0  0  0  0  0  0  0
   -2.0911   -0.8043   -4.1008 H   0  0  0  0  0  0  0  0  0  0  0  0
    0.2178    0.0074   -4.4946 H   0  0  0  0  0  0  0  0  0  0  0  0
  1  2  1  0
  2  3  2  0
  3  4  1  0
  4  5  2  0
  5  6  1  0
  6  7  2  0
  7  8  1  0
  8  9  2  0
  9 10  1  0
 10 11  2  0
 11 12  1  0
 11 13  1  0
 13 14  2  0
 14 15  1  0
 15 16  2  0
  7  2  1  0
 16 10  1  0
 16  6  1  0
  1 17  1  0
  1 18  1  0
  1 19  1  0
  3 20  1  0
  4 21  1  0
  8 22  1  0
  9 23  1  0
 12 24  1  0
 12 25  1  0
 12 26  1  0
 13 27  1  0
 14 28  1  0
M  END
$$$$

     RDKit          3D

 28 30  0  0  0  0  0  0  0  0999 V2000
    0.1532    3.7826   -0.9848 C   0  0  0  0  0  0  0  0  0  0  0  0
    0.6190    2.7875    0.0274 C   0  0  0  0  0  0  0  0  0  0  0  0
    1.4189    3.1455    1.0743 C   0  0  0  0  0  0  0  0  0  0  0  0
    1.8400    2.1823    2.0031 C   0  0  0  0  0  0  0  0  0  0  0  0
    1.5007    0.8904    1.9308 N   0  0  0  0  0  0  0  0  0  0  0  0
    0.7233    0.5050    0.9162 C   0  0  0  0  0  0  0  0  0  0  0  0
    0.2359    1.4079   -0.0753 C   0  0  0  0  0  0  0  0  0  0  0  0
   -0.5924    0.9205   -1.1164 C   0  0  0  0  0  0  0  0  0  0  0  0
   -0.9207   -0.3943   -1.2052 C   0  0  0  0  0  0  0  0  0  0  0  0
   -0.4611   -1.3362   -0.2501 C   0  0  0  0  0  0  0  0  0  0  0  0
   -0.7915   -2.7257   -0.3122 C   0  0  0  0  0  0  0  0  0  0  0  0
   -1.6472   -3.2525   -1.4159 C   0  0  0  0  0  0  0  0  0  0  0  0
   -0.2989   -3.5400    0.6751 C   0  0  0  0  0  0  0  0  0  0  0  0
    0.4977   -3.0076    1.6953 C   0  0  0  0  0  0  0  0  0  0  0  0
    0.8299   -1.7131    1.7723 N   0  0  0  0  0  0  0  0  0  0  0  0
    0.3657   -0.8938    0.8310 C   0  0  0  0  0  0  0  0  0  0  0  0
   -0.9290    3.8959   -0.9644 H   0  0  0  0  0  0  0  0  0  0  0  0
    0.4374    3.4926   -1.9952 H   0  0  0  0  0  0  0  0  0  0  0  0
    0.5962    4.7662   -0.7800 H   0  0  0  0  0  0  0  0  0  0  0  0
    1.7311    4.1746    1.1940 H   0  0  0  0  0  0  0  0  0  0  0  0
    2.4715    2.4672    2.8276 H   0  0  0  0  0  0  0  0  0  0  0  0
   -0.9681    1.6160   -1.8555 H   0  0  0  0  0  0  0  0  0  0  0  0
   -1.5427   -0.7326   -2.0239 H   0  0  0  0  0  0  0  0  0  0  0  0
   -1.1954   -3.0846   -2.3913 H   0  0  0  0  0  0  0  0  0  0  0  0
   -2.6276   -2.7744   -1.4199 H   0  0  0  0  0  0  0  0  0  0  0  0
   -1.7979   -4.3344   -1.2971 H   0  0  0  0  0  0  0  0  0  0  0  0
   -0.5285   -4.5970    0.6669 H   0  0  0  0  0  0  0  0  0  0  0  0
    0.8806   -3.6482    2.4730 H   0  0  0  0  0  0  0  0  0  0  0  0
  1  2  1  0
  2  3  2  0
  3  4  1  0
  4  5  2  0
  5  6  1  0
  6  7  2  0
  7  8  1  0
  8  9  2  0
  9 10  1  0
 10 11  2  0
 11 12  1  0
 11 13  1  0
 13 14  2  0
 14 15  1  0
 15 16  2  0
  7  2  1  0
 16 10  1  0
 16  6  1  0
  1 17  1  0
  1 18  1  0
  1 19  1  0
  3 20  1  0
  4 21  1  0
  8 22  1  0
  9 23  1  0
 12 24  1  0
 12 25  1  0
 12 26  1  0
 13 27  1  0
 14 28  1  0
M  END
$$$$

     RDKit          3D

 28 30  0  0  0  0  0  0  0  0999 V2000
    1.5437   -1.6555    3.1806 C   0  0  0  0  0  0  0  0  0  0  0  0
    1.1399   -1.9307    1.7692 C   0  0  0  0  0  0  0  0  0  0  0  0
    1.2789   -3.1635    1.1993 C   0  0  0  0  0  0  0  0  0  0  0  0
    0.8674   -3.3778   -0.1242 C   0  0  0  0  0  0  0  0  0  0  0  0
    0.3295   -2.4286   -0.8982 N   0  0  0  0  0  0  0  0  0  0  0  0
    0.1938   -1.2066   -0.3757 C   0  0  0  0  0  0  0  0  0  0  0  0
    0.5737   -0.8876    0.9620 C   0  0  0  0  0  0  0  0  0  0  0  0
    0.3863    0.4302    1.4485 C   0  0  0  0  0  0  0  0  0  0  0  0
   -0.1351    1.4070    0.6653 C   0  0  0  0  0  0  0  0  0  0  0  0
   -0.5380    1.1484   -0.6690 C   0  0  0  0  0  0  0  0  0  0  0  0
   -1.1078    2.1488   -1.5119 C   0  0  0  0  0  0  0  0  0  0  0  0
   -1.2937    3.5465   -1.0168 C   0  0  0  0  0  0  0  0  0  0  0  0
   -1.4646    1.7767   -2.7825 C   0  0  0  0  0  0  0  0  0  0  0  0
   -1.2618    0.4627   -3.2192 C   0  0  0  0  0  0  0  0  0  0  0  0
   -0.7230   -0.4948   -2.4538 N   0  0  0  0  0  0  0  0  0  0  0  0
   -0.3772   -0.1687   -1.2089 C   0  0  0  0  0  0  0  0  0  0  0  0
    1.9728   -2.5561    3.6433 H   0  0  0  0  0  0  0  0  0  0  0  0
    0.6906   -1.3460    3.7840 H   0  0  0  0  0  0  0  0  0  0  0  0
    2.2917   -0.8635    3.2396 H   0  0  0  0  0  0  0  0  0  0  0  0
    1.7057   -3.9821    1.7632 H   0  0  0  0  0  0  0  0  0  0  0  0
    0.9776   -4.3517   -0.5694 H   0  0  0  0  0  0  0  0  0  0  0  0
    0.6720    0.6567    2.4677 H   0  0  0  0  0  0  0  0  0  0  0  0
   -0.2435    2.4082    1.0653 H   0  0  0  0  0  0  0  0  0  0  0  0
   -1.7136    4.1748   -1.8126 H   0  0  0  0  0  0  0  0  0  0  0  0
   -0.3446    3.9847   -0.7088 H   0  0  0  0  0  0  0  0  0  0  0  0
   -1.9666    3.5927   -0.1625 H   0  0  0  0  0  0  0  0  0  0  0  0
   -1.9067    2.5004   -3.4552 H   0  0  0  0  0  0  0  0  0  0  0  0
   -1.5474    0.1753   -4.2193 H   0  0  0  0  0  0  0  0  0  0  0  0
  1  2  1  0
  2  3  2  0
  3  4  1  0
  4  5  2  0
  5  6  1  0
  6  7  2  0
  7  8  1  0
  8  9  2  0
  9 10  1  0
 10 11  2  0
 11 12  1  0
 11 13  1  0
 13 14  2  0
 14 15  1  0
 15 16  2  0
  7  2  1  0
 16 10  1  0
 16  6  1  0
  1 17  1  0
  1 18  1  0
  1 19  1  0
  3 20  1  0
  4 21  1  0
  8 22  1  0
  9 23  1  0
 12 24  1  0
 12 25  1  0
 12 26  1  0
 13 27  1  0
 14 28  1  0
M  END
$$$$
