
     RDKit          3D

 28 30  0  0  0  0  0  0  0  0999 V2000
   -3.7261    1.2241   -1.2240 C   0  0  0  0  0  0  0  0  0  0  0  0
   -2.7196    0.9290   -0.1547 C   0  0  0  0  0  0  0  0  0  0  0  0
   -3.0590    1.1228    1.2027 C   0  0  0  0  0  0  0  0  0  0  0  0
   -2.1353    0.8551    2.1727 C   0  0  0  0  0  0  0  0  0  0  0  0
   -0.8521    0.3896    1.8039 C   0  0  0  0  0  0  0  0  0  0  0  0
    0.1623    0.0862    2.7589 C   0  0  0  0  0  0  0  0  0  0  0  0
    1.3668   -0.3604    2.3735 C   0  0  0  0  0  0  0  0  0  0  0  0
    1.6853   -0.5421    0.9963 C   0  0  0  0  0  0  0  0  0  0  0  0
    2.9449   -1.0129    0.5574 C   0  0  0  0  0  0  0  0  0  0  0  0
    3.1810   -1.1512   -0.7807 C   0  0  0  0  0  0  0  0  0  0  0  0
    2.1644   -0.8248   -1.7059 C   0  0  0  0  0  0  0  0  0  0  0  0
    2.4163   -0.9842   -3.1744 C   0  0  0  0  0  0  0  0  0  0  0  0
    0.9564   -0.3790   -1.3134 N   0  0  0  0  0  0  0  0  0  0  0  0
    0.7191   -0.2469   -0.0105 C   0  0  0  0  0  0  0  0  0  0  0  0
   -0.5983    0.2291    0.4083 C   0  0  0  0  0  0  0  0  0  0  0  0
   -1.5025    0.4926   -0.5314 N   0  0  0  0  0  0  0  0  0  0  0  0
   -4.6588    0.6879   -1.0272 H   0  0  0  0  0  0  0  0  0  0  0  0
   -3.9550    2.2923   -1.2426 H   0  0  0  0  0  0  0  0  0  0  0  0
   -3.3496    0.9300   -2.2014 H   0  0  0  0  0  0  0  0  0  0  0  0
   -4.0485    1.4808    1.4556 H   0  0  0  0  0  0  0  0  0  0  0  0
   -2.3491    0.9921    3.2147 H   0  0  0  0  0  0  0  0  0  0  0  0
   -0.0723    0.2236    3.8120 H   0  0  0  0  0  0  0  0  0  0  0  0
    2.1396   -0.5904    3.1017 H   0  0  0  0  0  0  0  0  0  0  0  0
    3.6902   -1.2489    1.2918 H   0  0  0  0  0  0  0  0  0  0  0  0
    4.1340   -1.5088   -1.1486 H   0  0  0  0  0  0  0  0  0  0  0  0
    3.3830   -0.5410   -3.4391 H   0  0  0  0  0  0  0  0  0  0  0  0
    1.6352   -0.5007   -3.7578 H   0  0  0  0  0  0  0  0  0  0  0  0
    2.4479   -2.0439   -3.4380 H   0  0  0  0  0  0  0  0  0  0  0  0
  1  2  1  0
  2  3  2  0
  3  4  1  0
  4  5  2  0
  5  6  1  0
  6  7  2  0
  7  8  1  0
  8  9  2  0
  9 10  1  0
 10 11  2  0
 11 12  1  0
 11 13  1  0
 13 14  2  0
 14 15  1  0
 15 16  2  0
 16  2  1  0
 15  5  1  0
 14  8  1  0
  1 17  1  0
  1 18  1  0
  1 19  1  0
  3 20  1  0
  4 21  1  0
  6 22  1  0
  7 23  1  0
  9 24  1  0
 10 25  1  0
 12 26  1  0
 12 27  1  0
 12 28  1  0
M  END
$$$$

     RDKit          3D

 28 30  0  0  0  0  0  0  0  0999 V2000
   -3.8235   -1.4582   -0.3254 C   0  0  0  0  0  0  0  0  0  0  0  0
   -2.7975   -0.5785    0.3225 C   0  0  0  0  0  0  0  0  0  0  0  0
   -3.1689    0.2662    1.3910 C   0  0  0  0  0  0  0  0  0  0  0  0
   -2.2324    1.0779    1.9661 C   0  0  0  0  0  0  0  0  0  0  0  0
   -0.9040    1.0611    1.4795 C   0  0  0  0  0  0  0  0  0  0  0  0
    0.1295    1.8792    2.0241 C   0  0  0  0  0  0  0  0  0  0  0  0
    1.3804    1.8306    1.5473 C   0  0  0  0  0  0  0  0  0  0  0  0
    1.7285    0.9661    0.4683 C   0  0  0  0  0  0  0  0  0  0  0  0
    3.0386    0.8804   -0.0570 C   0  0  0  0  0  0  0  0  0  0  0  0
    3.2980    0.0276   -1.0918 C   0  0  0  0  0  0  0  0  0  0  0  0
    2.2508   -0.7561   -1.6232 C   0  0  0  0  0  0  0  0  0  0  0  0
    2.5261   -1.7171   -2.7408 C   0  0  0  0  0  0  0  0  0  0  0  0
    0.9929   -0.6951   -1.1426 N   0  0  0  0  0  0  0  0  0  0  0  0
    0.7377    0.1317   -0.1307 C   0  0  0  0  0  0  0  0  0  0  0  0
   -0.6251    0.1766    0.3961 C   0  0  0  0  0  0  0  0  0  0  0  0
   -1.5401   -0.6120   -0.1616 N   0  0  0  0  0  0  0  0  0  0  0  0
   -3.3531   -2.1654   -1.0041 H   0  0  0  0  0  0  0  0  0  0  0  0
   -4.3862   -2.0088    0.4354 H   0  0  0  0  0  0  0  0  0  0  0  0
   -4.5331   -0.8489   -0.8888 H   0  0  0  0  0  0  0  0  0  0  0  0
   -4.1936    0.2589    1.7410 H   0  0  0  0  0  0  0  0  0  0  0  0
   -2.4749    1.7319    2.7807 H   0  0  0  0  0  0  0  0  0  0  0  0
   -0.1330    2.5416    2.8456 H   0  0  0  0  0  0  0  0  0  0  0  0
    2.1645    2.4561    1.9669 H   0  0  0  0  0  0  0  0  0  0  0  0
    3.8072    1.4921    0.3754 H   0  0  0  0  0  0  0  0  0  0  0  0
    4.2938   -0.0587   -1.5090 H   0  0  0  0  0  0  0  0  0  0  0  0
    1.5994   -2.0842   -3.1719 H   0  0  0  0  0  0  0  0  0  0  0  0
    3.1013   -2.5650   -2.3668 H   0  0  0  0  0  0  0  0  0  0  0  0
    3.1166   -1.2299   -3.5262 H   0  0  0  0  0  0  0  0  0  0  0  0
  1  2  1  0
  2  3  2  0
  3  4  1  0
  4  5  2  0
  5  6  1  0
  6  7  2  0
  7  8  1  0
  8  9  2  0
  9 10  1  0
 10 11  2  0
 11 12  1  0
 11 13  1  0
 13 14  2  0
 14 15  1  0
 15 16  2  0
 16  2  1  0
 15  5  1  0
 14  8  1  0
  1 17  1  0
  1 18  1  0
  1 19  1  0
  3 20  1  0
  4 21  1  0
  6 22  1  0
  7 23  1  0
  9 24  1  0
 10 25  1  0
 12 26  1  0
 12 27  1  0
 12 28  1  0
M  END
$$$$

     RDKit          3D

 28 30  0  0  0  0  0  0  0  0999 V2000
    1.5004    2.2599    3.0807 C   0  0  0  0  0  0  0  0  0  0  0  0
    0.4736    1.9929    2.0218 C   0  0  0  0  0  0  0  0  0  0  0  0
   -0.6269    2.8625    1.8677 C   0  0  0  0  0  0  0  0  0  0  0  0
   -1.5660    2.5963    0.9117 C   0  0  0  0  0  0  0  0  0  0  0  0
   -1.4192    1.4571    0.0863 C   0  0  0  0  0  0  0  0  0  0  0  0
   -2.3571    1.1059   -0.9279 C   0  0  0  0  0  0  0  0  0  0  0  0
   -2.1782    0.0251   -1.7033 C   0  0  0  0  0  0  0  0  0  0  0  0
   -1.0493   -0.8281   -1.5365 C   0  0  0  0  0  0  0  0  0  0  0  0
   -0.8283   -1.9770   -2.3315 C   0  0  0  0  0  0  0  0  0  0  0  0
    0.2734   -2.7524   -2.1042 C   0  0  0  0  0  0  0  0  0  0  0  0
    1.1732   -2.3951   -1.0774 C   0  0  0  0  0  0  0  0  0  0  0  0
    2.3709   -3.2497   -0.7987 C   0  0  0  0  0  0  0  0  0  0  0  0
    0.9915   -1.2990   -0.3149 N   0  0  0  0  0  0  0  0  0  0  0  0
   -0.0782   -0.5402   -0.5307 C   0  0  0  0  0  0  0  0  0  0  0  0
   -0.2684    0.6427    0.3080 C   0  0  0  0  0  0  0  0  0  0  0  0
    0.6386    0.9043    1.2456 N   0  0  0  0  0  0  0  0  0  0  0  0
    2.0006    3.2123    2.8904 H   0  0  0  0  0  0  0  0  0  0  0  0
    1.0231    2.3169    4.0640 H   0  0  0  0  0  0  0  0  0  0  0  0
    2.2447    1.4674    3.0934 H   0  0  0  0  0  0  0  0  0  0  0  0
   -0.7121    3.7288    2.5114 H   0  0  0  0  0  0  0  0  0  0  0  0
   -2.4211    3.2296    0.7690 H   0  0  0  0  0  0  0  0  0  0  0  0
   -3.2239    1.7477   -1.0581 H   0  0  0  0  0  0  0  0  0  0  0  0
   -2.8987   -0.2357   -2.4738 H   0  0  0  0  0  0  0  0  0  0  0  0
   -1.5379   -2.2164   -3.0989 H   0  0  0  0  0  0  0  0  0  0  0  0
    0.4665   -3.6379   -2.6968 H   0  0  0  0  0  0  0  0  0  0  0  0
    2.0529   -4.2383   -0.4555 H   0  0  0  0  0  0  0  0  0  0  0  0
    2.9632   -3.3828   -1.7103 H   0  0  0  0  0  0  0  0  0  0  0  0
    2.9929   -2.7970   -0.0315 H   0  0  0  0  0  0  0  0  0  0  0  0
  1  2  1  0
  2  3  2  0
  3  4  1  0
  4  5  2  0
  5  6  1  0
  6  7  2  0
  7  8  1  0
  8  9  2  0
  9 10  1  0
 10 11  2  0
 11 12  1  0
 11 13  1  0
 13 14  2  0
 14 15  1  0
 15 16  2  0
 16  2  1  0
 15  5  1  0
 14  8  1  0
  1 17  1  0
  1 18  1  0
  1 19  1  0
  3 20  1  0
  4 21  1  0
  6 22  1  0
  7 23  1  0
  9 24  1  0
 10 25  1  0
 12 26  1  0
 12 27  1  0
 12 28  1  0
M  END
$$$$

     RDKit          3D

 28 30  0  0  0  0  0  0  0  0999 V2000
    1.9831    0.5896   -3.5407 C   0  0  0  0  0  0  0  0  0  0  0  0
    0.7979    0.1054   -2.7603 C   0  0  0  0  0  0  0  0  0  0  0  0
   -0.3141   -0.4524   -3.4298 C   0  0  0  0  0  0  0  0  0  0  0  0
   -1.3928   -0.8795   -2.7060 C   0  0  0  0  0  0  0  0  0  0  0  0
   -1.3814   -0.7482   -1.2983 C   0  0  0  0  0  0  0  0  0  0  0  0
   -2.4708   -1.1561   -0.4751 C   0  0  0  0  0  0  0  0  0  0  0  0
   -2.4301   -1.0065    0.8567 C   0  0  0  0  0  0  0  0  0  0  0  0
   -1.2932   -0.4378    1.5056 C   0  0  0  0  0  0  0  0  0  0  0  0
   -1.2153   -0.2605    2.9068 C   0  0  0  0  0  0  0  0  0  0  0  0
   -0.0896    0.2850    3.4564 C   0  0  0  0  0  0  0  0  0  0  0  0
    0.9832    0.6606    2.6195 C   0  0  0  0  0  0  0  0  0  0  0  0
    2.2206    1.2609    3.2161 C   0  0  0  0  0  0  0  0  0  0  0  0
    0.9379    0.4961    1.2837 N   0  0  0  0  0  0  0  0  0  0  0  0
   -0.1628   -0.0198    0.7406 C   0  0  0  0  0  0  0  0  0  0  0  0
   -0.2139   -0.1729   -0.7124 C   0  0  0  0  0  0  0  0  0  0  0  0
    0.8323    0.2382   -1.4210 N   0  0  0  0  0  0  0  0  0  0  0  0
    2.3326   -0.1940   -4.2185 H   0  0  0  0  0  0  0  0  0  0  0  0
    1.7068    1.4598   -4.1401 H   0  0  0  0  0  0  0  0  0  0  0  0
    2.7957    0.8687   -2.8716 H   0  0  0  0  0  0  0  0  0  0  0  0
   -0.2968   -0.5330   -4.5088 H   0  0  0  0  0  0  0  0  0  0  0  0
   -2.2551   -1.3122   -3.1751 H   0  0  0  0  0  0  0  0  0  0  0  0
   -3.3377   -1.5939   -0.9628 H   0  0  0  0  0  0  0  0  0  0  0  0
   -3.2685   -1.3128    1.4767 H   0  0  0  0  0  0  0  0  0  0  0  0
   -2.0502   -0.5592    3.5095 H   0  0  0  0  0  0  0  0  0  0  0  0
   -0.0019    0.4345    4.5252 H   0  0  0  0  0  0  0  0  0  0  0  0
    1.9674    2.1821    3.7511 H   0  0  0  0  0  0  0  0  0  0  0  0
    2.9456    1.4895    2.4396 H   0  0  0  0  0  0  0  0  0  0  0  0
    2.6712    0.5686    3.9330 H   0  0  0  0  0  0  0  0  0  0  0  0
  1  2  1  0
  2  3  2  0
  3  4  1  0
  4  5  2  0
  5  6  1  0
  6  7  2  0
  7  8  1  0
  8  9  2  0
  9 10  1  0
 10 11  2  0
 11 12  1  0
 11 13  1  0
 13 14  2  0
 14 15  1  0
 15 16  2  0
 16  2  1  0
 15  5  1  0
 14  8  1  0
  1 17  1  0
  1 18  1  0
  1 19  1  0
  3 20  1  0
  4 21  1  0
  6 22  1  0
  7 23  1  0
  9 24  1  0
 10 25  1  0
 12 26  1  0
 12 27  1  0
 12 28  1  0
M  END
$$$$

     RDKit          3D

 28 30  0  0  0  0  0  0  0  0999 V2000
    1.8983    1.8464    3.1445 C   0  0  0  0  0  0  0  0  0  0  0  0
    1.8800    1.3024    1.7480 C   0  0  0  0  0  0  0  0  0  0  0  0
    3.0357    1.4002    0.9422 C   0  0  0  0  0  0  0  0  0  0  0  0
    3.0131    0.9065   -0.3315 C   0  0  0  0  0  0  0  0  0  0  0  0
    1.8286    0.3126   -0.8276 C   0  0  0  0  0  0  0  0  0  0  0  0
    1.7224   -0.2107   -2.1499 C   0  0  0  0  0  0  0  0  0  0  0  0
    0.5807   -0.7510   -2.5947 C   0  0  0  0  0  0  0  0  0  0  0  0
   -0.5680   -0.8439   -1.7556 C   0  0  0  0  0  0  0  0  0  0  0  0
   -1.7886   -1.4140   -2.1909 C   0  0  0  0  0  0  0  0  0  0  0  0
   -2.8472   -1.4724   -1.3309 C   0  0  0  0  0  0  0  0  0  0  0  0
   -2.7089   -0.9658   -0.0203 C   0  0  0  0  0  0  0  0  0  0  0  0
   -3.8739   -1.0261    0.9212 C   0  0  0  0  0  0  0  0  0  0  0  0
   -1.5608   -0.4159    0.4181 N   0  0  0  0  0  0  0  0  0  0  0  0
   -0.5258   -0.3507   -0.4179 C   0  0  0  0  0  0  0  0  0  0  0  0
    0.7139    0.2588    0.0614 C   0  0  0  0  0  0  0  0  0  0  0  0
    0.7405    0.7418    1.3007 N   0  0  0  0  0  0  0  0  0  0  0  0
    2.7293    1.4090    3.7074 H   0  0  0  0  0  0  0  0  0  0  0  0
    2.0409    2.9288    3.1241 H   0  0  0  0  0  0  0  0  0  0  0  0
    0.9649    1.6226    3.6560 H   0  0  0  0  0  0  0  0  0  0  0  0
    3.9225    1.8706    1.3474 H   0  0  0  0  0  0  0  0  0  0  0  0
    3.8716    0.9587   -0.9730 H   0  0  0  0  0  0  0  0  0  0  0  0
    2.6015   -0.1500   -2.7884 H   0  0  0  0  0  0  0  0  0  0  0  0
    0.4974   -1.1325   -3.6113 H   0  0  0  0  0  0  0  0  0  0  0  0
   -1.8526   -1.7888   -3.1930 H   0  0  0  0  0  0  0  0  0  0  0  0
   -3.7955   -1.8985   -1.6353 H   0  0  0  0  0  0  0  0  0  0  0  0
   -4.6650   -0.3574    0.5762 H   0  0  0  0  0  0  0  0  0  0  0  0
   -4.2831   -2.0410    0.9467 H   0  0  0  0  0  0  0  0  0  0  0  0
   -3.5721   -0.7396    1.9263 H   0  0  0  0  0  0  0  0  0  0  0  0
  1  2  1  0
  2  3  2  0
  3  4  1  0
  4  5  2  0
  5  6  1  0
  6  7  2  0
  7  8  1  0
  8  9  2  0
  9 10  1  0
 10 11  2  0
 11 12  1  0
 11 13  1  0
 13 14  2  0
 14 15  1  0
 15 16  2  0
 16  2  1  0
 15  5  1  0
 14  8  1  0
  1 17  1  0
  1 18  1  0
  1 19  1  0
  3 20  1  0
  4 21  1  0
  6 22  1  0
  7 23  1  0
  9 24  1  0
 10 25  1  0
 12 26  1  0
 12 27  1  0
 12 28  1  0
M  END
$$$$

     RDKit          3D

 28 30  0  0  0  0  0  0  0  0999 V2000
    0.7601   -3.9497    0.8166 C   0  0  0  0  0  0  0  0  0  0  0  0
    1.1897   -2.5170    0.7188 C   0  0  0  0  0  0  0  0  0  0  0  0
    2.5135   -2.1534    1.0516 C   0  0  0  0  0  0  0  0  0  0  0  0
    2.8935   -0.8433    0.9697 C   0  0  0  0  0  0  0  0  0  0  0  0
    1.9592    0.1280    0.5410 C   0  0  0  0  0  0  0  0  0  0  0  0
    2.2829    1.5101    0.4025 C   0  0  0  0  0  0  0  0  0  0  0  0
    1.3721    2.4009   -0.0145 C   0  0  0  0  0  0  0  0  0  0  0  0
    0.0385    2.0072   -0.3288 C   0  0  0  0  0  0  0  0  0  0  0  0
   -0.9453    2.9175   -0.7777 C   0  0  0  0  0  0  0  0  0  0  0  0
   -2.2096    2.4689   -1.0393 C   0  0  0  0  0  0  0  0  0  0  0  0
   -2.5128    1.1014   -0.8608 C   0  0  0  0  0  0  0  0  0  0  0  0
   -3.8996    0.6020   -1.1347 C   0  0  0  0  0  0  0  0  0  0  0  0
   -1.5901    0.2109   -0.4499 N   0  0  0  0  0  0  0  0  0  0  0  0
   -0.3555    0.6427   -0.1964 C   0  0  0  0  0  0  0  0  0  0  0  0
    0.6432   -0.3327    0.2377 C   0  0  0  0  0  0  0  0  0  0  0  0
    0.2789   -1.6088    0.3232 N   0  0  0  0  0  0  0  0  0  0  0  0
   -0.2270   -4.0885    0.3844 H   0  0  0  0  0  0  0  0  0  0  0  0
    1.4731   -4.5963    0.2940 H   0  0  0  0  0  0  0  0  0  0  0  0
    0.7294   -4.2592    1.8645 H   0  0  0  0  0  0  0  0  0  0  0  0
    3.2104   -2.9183    1.3670 H   0  0  0  0  0  0  0  0  0  0  0  0
    3.8893   -0.5280    1.2181 H   0  0  0  0  0  0  0  0  0  0  0  0
    3.2999    1.8151    0.6320 H   0  0  0  0  0  0  0  0  0  0  0  0
    1.6249    3.4528   -0.1198 H   0  0  0  0  0  0  0  0  0  0  0  0
   -0.6702    3.9452   -0.9081 H   0  0  0  0  0  0  0  0  0  0  0  0
   -2.9845    3.1401   -1.3828 H   0  0  0  0  0  0  0  0  0  0  0  0
   -3.9807   -0.4573   -0.8999 H   0  0  0  0  0  0  0  0  0  0  0  0
   -4.6224    1.1548   -0.5244 H   0  0  0  0  0  0  0  0  0  0  0  0
   -4.1609    0.7548   -2.1839 H   0  0  0  0  0  0  0  0  0  0  0  0
  1  2  1  0
  2  3  2  0
  3  4  1  0
  4  5  2  0
  5  6  1  0
  6  7  2  0
  7  8  1  0
  8  9  2  0
  9 10  1  0
 10 11  2  0
 11 12  1  0
 11 13  1  0
 13 14  2  0
 14 15  1  0
 15 16  2  0
 16  2  1  0
 15  5  1  0
 14  8  1  0
  1 17  1  0
  1 18  1  0
  1 19  1  0
  3 20  1  0
  4 21  1  0
  6 22  1  0
  7 23  1  0
  9 24  1  0
 10 25  1  0
 12 26  1  0
 12 27  1  0
 12 28  1  0
M  END
$$$$

     RDKit          3D

 28 30  0  0  0  0  0  0  0  0999 V2000
    1.2117   -0.1054    3.9146 C   0  0  0  0  0  0  0  0  0  0  0  0
    0.7651   -0.7838    2.6541 C   0  0  0  0  0  0  0  0  0  0  0  0
    0.6490   -2.1900    2.6119 C   0  0  0  0  0  0  0  0  0  0  0  0
    0.2365   -2.7978    1.4592 C   0  0  0  0  0  0  0  0  0  0  0  0
   -0.0637   -2.0088    0.3252 C   0  0  0  0  0  0  0  0  0  0  0  0
   -0.5066   -2.5652   -0.9114 C   0  0  0  0  0  0  0  0  0  0  0  0
   -0.7969   -1.7868   -1.9633 C   0  0  0  0  0  0  0  0  0  0  0  0
   -0.6577   -0.3673   -1.8945 C   0  0  0  0  0  0  0  0  0  0  0  0
   -0.9547    0.4912   -2.9781 C   0  0  0  0  0  0  0  0  0  0  0  0
   -0.7732    1.8392   -2.8375 C   0  0  0  0  0  0  0  0  0  0  0  0
   -0.2959    2.3569   -1.6126 C   0  0  0  0  0  0  0  0  0  0  0  0
   -0.0704    3.8313   -1.4594 C   0  0  0  0  0  0  0  0  0  0  0  0
   -0.0298    1.5636   -0.5586 N   0  0  0  0  0  0  0  0  0  0  0  0
   -0.2007    0.2514   -0.6918 C   0  0  0  0  0  0  0  0  0  0  0  0
    0.0942   -0.5977    0.4598 C   0  0  0  0  0  0  0  0  0  0  0  0
    0.4956   -0.0111    1.5856 N   0  0  0  0  0  0  0  0  0  0  0  0
    2.2393   -0.3946    4.1522 H   0  0  0  0  0  0  0  0  0  0  0  0
    0.5728   -0.4079    4.7514 H   0  0  0  0  0  0  0  0  0  0  0  0
    1.1641    0.9755    3.8031 H   0  0  0  0  0  0  0  0  0  0  0  0
    0.8903   -2.7680    3.4943 H   0  0  0  0  0  0  0  0  0  0  0  0
    0.1292   -3.8628    1.3924 H   0  0  0  0  0  0  0  0  0  0  0  0
   -0.6135   -3.6464   -0.9663 H   0  0  0  0  0  0  0  0  0  0  0  0
   -1.1378   -2.2158   -2.9020 H   0  0  0  0  0  0  0  0  0  0  0  0
   -1.3130    0.0594   -3.8950 H   0  0  0  0  0  0  0  0  0  0  0  0
   -0.9868    2.5216   -3.6506 H   0  0  0  0  0  0  0  0  0  0  0  0
   -1.0231    4.3665   -1.4740 H   0  0  0  0  0  0  0  0  0  0  0  0
    0.5394    4.2057   -2.2881 H   0  0  0  0  0  0  0  0  0  0  0  0
    0.4365    4.0470   -0.5205 H   0  0  0  0  0  0  0  0  0  0  0  0
  1  2  1  0
  2  3  2  0
  3  4  1  0
  4  5  2  0
  5  6  1  0
  6  7  2  0
  7  8  1  0
  8  9  2  0
  9 10  1  0
 10 11  2  0
 11 12  1  0
 11 13  1  0
 13 14  2  0
 14 15  1  0
 15 16  2  0
 16  2  1  0
 15  5  1  0
 14  8  1  0
  1 17  1  0
  1 18  1  0
  1 19  1  0
  3 20  1  0
  4 21  1  0
  6 22  1  0
  7 23  1  0
  9 24  1  0
 10 25  1  0
 12 26  1  0
 12 27  1  0
 12 28  1  0
M  END
$$$$

     RDKit          3D

 28 30  0  0  0  0  0  0  0  0999 V2000
   -0.2200   -1.9856    3.5866 C   0  0  0  0  0  0  0  0  0  0  0  0
    0.5635   -1.3513    2.4779 C   0  0  0  0  0  0  0  0  0  0  0  0
    1.9718   -1.3034    2.5450 C   0  0  0  0  0  0  0  0  0  0  0  0
    2.6746   -0.7143    1.5320 C   0  0  0  0  0  0  0  0  0  0  0  0
    1.9813   -0.1545    0.4339 C   0  0  0  0  0  0  0  0  0  0  0  0
    2.6436    0.4746   -0.6618 C   0  0  0  0  0  0  0  0  0  0  0  0
    1.9540    0.9994   -1.6850 C   0  0  0  0  0  0  0  0  0  0  0  0
    0.5285    0.9591   -1.7164 C   0  0  0  0  0  0  0  0  0  0  0  0
   -0.2337    1.5057   -2.7746 C   0  0  0  0  0  0  0  0  0  0  0  0
   -1.5971    1.4322   -2.7310 C   0  0  0  0  0  0  0  0  0  0  0  0
   -2.2254    0.8061   -1.6308 C   0  0  0  0  0  0  0  0  0  0  0  0
   -3.7194    0.7153   -1.5777 C   0  0  0  0  0  0  0  0  0  0  0  0
   -1.5218    0.2710   -0.6150 N   0  0  0  0  0  0  0  0  0  0  0  0
   -0.1946    0.3427   -0.6499 C   0  0  0  0  0  0  0  0  0  0  0  0
    0.5574   -0.2383    0.4608 C   0  0  0  0  0  0  0  0  0  0  0  0
   -0.1208   -0.8187    1.4471 N   0  0  0  0  0  0  0  0  0  0  0  0
   -0.2858   -1.2994    4.4336 H   0  0  0  0  0  0  0  0  0  0  0  0
   -1.2253   -2.2289    3.2552 H   0  0  0  0  0  0  0  0  0  0  0  0
    0.2734   -2.9027    3.9280 H   0  0  0  0  0  0  0  0  0  0  0  0
    2.4753   -1.7349    3.4004 H   0  0  0  0  0  0  0  0  0  0  0  0
    3.7452   -0.6627    1.5444 H   0  0  0  0  0  0  0  0  0  0  0  0
    3.7298    0.5089   -0.6434 H   0  0  0  0  0  0  0  0  0  0  0  0
    2.4656    1.4732   -2.5190 H   0  0  0  0  0  0  0  0  0  0  0  0
    0.2814    1.9713   -3.5934 H   0  0  0  0  0  0  0  0  0  0  0  0
   -2.2049    1.8458   -3.5243 H   0  0  0  0  0  0  0  0  0  0  0  0
   -4.0896    0.1237   -2.4209 H   0  0  0  0  0  0  0  0  0  0  0  0
   -4.1594    1.7149   -1.6515 H   0  0  0  0  0  0  0  0  0  0  0  0
   -4.0475    0.2509   -0.6506 H   0  0  0  0  0  0  0  0  0  0  0  0
  1  2  1  0
  2  3  2  0
  3  4  1  0
  4  5  2  0
  5  6  1  0
  6  7  2  0
  7  8  1  0
  8  9  2  0
  9 10  1  0
 10 11  2  0
 11 12  1  0
 11 13  1  0
 13 14  2  0
 14 15  1  0
 15 16  2  0
 16  2  1  0
 15  5  1  0
 14  8  1  0
  1 17  1  0
  1 18  1  0
  1 19  1  0
  3 20  1  0
  4 21  1  0
  6 22  1  0
  7 23  1  0
  9 24  1  0
 10 25  1  0
 12 26  1  0
 12 27  1  0
 12 28  1  0
M  END
$$$$

     RDKit          3D

 28 30  0  0  0  0  0  0  0  0999 V2000
   -0.6789   -0.5945   -4.0048 C   0  0  0  0  0  0  0  0  0  0  0  0
   -1.0942   -0.0834   -2.6596 C   0  0  0  0  0  0  0  0  0  0  0  0
   -2.3515    0.5384   -2.4977 C   0  0  0  0  0  0  0  0  0  0  0  0
   -2.7243    0.9933   -1.2643 C   0  0  0  0  0  0  0  0  0  0  0  0
   -1.8450    0.8403   -0.1685 C   0  0  0  0  0  0  0  0  0  0  0  0
   -2.1552    1.3043    1.1436 C   0  0  0  0  0  0  0  0  0  0  0  0
   -1.2993    1.1349    2.1628 C   0  0  0  0  0  0  0  0  0  0  0  0
   -0.0430    0.4860    1.9745 C   0  0  0  0  0  0  0  0  0  0  0  0
    0.8836    0.2894    3.0246 C   0  0  0  0  0  0  0  0  0  0  0  0
    2.0696   -0.3376    2.7662 C   0  0  0  0  0  0  0  0  0  0  0  0
    2.3516   -0.7878    1.4587 C   0  0  0  0  0  0  0  0  0  0  0  0
    3.6448   -1.4884    1.1707 C   0  0  0  0  0  0  0  0  0  0  0  0
    1.4819   -0.6203    0.4426 N   0  0  0  0  0  0  0  0  0  0  0  0
    0.3295   -0.0017    0.6845 C   0  0  0  0  0  0  0  0  0  0  0  0
   -0.6019    0.1890   -0.4263 C   0  0  0  0  0  0  0  0  0  0  0  0
   -0.2422   -0.2467   -1.6308 N   0  0  0  0  0  0  0  0  0  0  0  0
   -1.2856   -1.4599   -4.2776 H   0  0  0  0  0  0  0  0  0  0  0  0
   -0.8305    0.1766   -4.7673 H   0  0  0  0  0  0  0  0  0  0  0  0
    0.3683   -0.8871   -4.0037 H   0  0  0  0  0  0  0  0  0  0  0  0
   -3.0030    0.6498   -3.3544 H   0  0  0  0  0  0  0  0  0  0  0  0
   -3.6699    1.4706   -1.0983 H   0  0  0  0  0  0  0  0  0  0  0  0
   -3.1134    1.7961    1.2927 H   0  0  0  0  0  0  0  0  0  0  0  0
   -1.5411    1.4917    3.1607 H   0  0  0  0  0  0  0  0  0  0  0  0
    0.6315    0.6436    4.0046 H   0  0  0  0  0  0  0  0  0  0  0  0
    2.7988   -0.5000    3.5505 H   0  0  0  0  0  0  0  0  0  0  0  0
    3.7597   -1.6532    0.1015 H   0  0  0  0  0  0  0  0  0  0  0  0
    3.6732   -2.4542    1.6838 H   0  0  0  0  0  0  0  0  0  0  0  0
    4.4866   -0.8889    1.5312 H   0  0  0  0  0  0  0  0  0  0  0  0
  1  2  1  0
  2  3  2  0
  3  4  1  0
  4  5  2  0
  5  6  1  0
  6  7  2  0
  7  8  1  0
  8  9  2  0
  9 10  1  0
 10 11  2  0
 11 12  1  0
 11 13  1  0
 13 14  2  0
 14 15  1  0
 15 16  2  0
 16  2  1  0
 15  5  1  0
 14  8  1  0
  1 17  1  0
  1 18  1  0
  1 19  1  0
  3 20  1  0
  4 21  1  0
  6 22  1  0
  7 23  1  0
  9 24  1  0
 10 25  1  0
 12 26  1  0
 12 27  1  0
 12 28  1  0
M  END
$$$$

     RDKit          3D

 28 30  0  0  0  0  0  0  0  0999 V2000
   -0.4564   -1.6825   -3.7221 C   0  0  0  0  0  0  0  0  0  0  0  0
   -0.8149   -1.5712   -2.2729 C   0  0  0  0  0  0  0  0  0  0  0  0
   -1.8115   -2.4097   -1.7291 C   0  0  0  0  0  0  0  0  0  0  0  0
   -2.1279   -2.3067   -0.4048 C   0  0  0  0  0  0  0  0  0  0  0  0
   -1.4532   -1.3616    0.4011 C   0  0  0  0  0  0  0  0  0  0  0  0
   -1.7187   -1.2065    1.7922 C   0  0  0  0  0  0  0  0  0  0  0  0
   -1.0485   -0.3131    2.5344 C   0  0  0  0  0  0  0  0  0  0  0  0
   -0.0518    0.5269    1.9582 C   0  0  0  0  0  0  0  0  0  0  0  0
    0.6808    1.4701    2.7143 C   0  0  0  0  0  0  0  0  0  0  0  0
    1.6097    2.2569    2.0949 C   0  0  0  0  0  0  0  0  0  0  0  0
    1.8195    2.1225    0.7053 C   0  0  0  0  0  0  0  0  0  0  0  0
    2.8060    3.0091    0.0057 C   0  0  0  0  0  0  0  0  0  0  0  0
    1.1439    1.2219   -0.0351 N   0  0  0  0  0  0  0  0  0  0  0  0
    0.2461    0.4421    0.5653 C   0  0  0  0  0  0  0  0  0  0  0  0
   -0.4684   -0.5495   -0.2395 C   0  0  0  0  0  0  0  0  0  0  0  0
   -0.1621   -0.6563   -1.5278 N   0  0  0  0  0  0  0  0  0  0  0  0
   -1.3044   -1.3764   -4.3426 H   0  0  0  0  0  0  0  0  0  0  0  0
   -0.2118   -2.7176   -3.9755 H   0  0  0  0  0  0  0  0  0  0  0  0
    0.3966   -1.0493   -3.9534 H   0  0  0  0  0  0  0  0  0  0  0  0
   -2.3099   -3.1244   -2.3707 H   0  0  0  0  0  0  0  0  0  0  0  0
   -2.8782   -2.9240    0.0481 H   0  0  0  0  0  0  0  0  0  0  0  0
   -2.4787   -1.8429    2.2347 H   0  0  0  0  0  0  0  0  0  0  0  0
   -1.2508   -0.2023    3.5965 H   0  0  0  0  0  0  0  0  0  0  0  0
    0.4899    1.5419    3.7678 H   0  0  0  0  0  0  0  0  0  0  0  0
    2.1914    2.9793    2.6530 H   0  0  0  0  0  0  0  0  0  0  0  0
    2.3678    3.9939   -0.1626 H   0  0  0  0  0  0  0  0  0  0  0  0
    3.0908    2.5889   -0.9554 H   0  0  0  0  0  0  0  0  0  0  0  0
    3.7046    3.1403    0.6201 H   0  0  0  0  0  0  0  0  0  0  0  0
  1  2  1  0
  2  3  2  0
  3  4  1  0
  4  5  2  0
  5  6  1  0
  6  7  2  0
  7  8  1  0
  8  9  2  0
  9 10  1  0
 10 11  2  0
 11 12  1  0
 11 13  1  0
 13 14  2  0
 14 15  1  0
 15 16  2  0
 16  2  1  0
 15  5  1  0
 14  8  1  0
  1 17  1  0
  1 18  1  0
  1 19  1  0
  3 20  1  0
  4 21  1  0
  6 22  1  0
  7 23  1  0
  9 24  1  0
 10 25  1  0
 12 26  1  0
 12 27  1  0
 12 28  1  0
M  END
$$$$

     RDKit          3D

 28 30  0  0  0  0  0  0  0  0999 V2000
    0.1838    4.0712   -0.4789 C   0  0  0  0  0  0  0  0  0  0  0  0
    0.0711    2.6854   -1.0381 C   0  0  0  0  0  0  0  0  0  0  0  0
   -0.0610    2.4862   -2.4287 C   0  0  0  0  0  0  0  0  0  0  0  0
   -0.1807    1.2157   -2.9193 C   0  0  0  0  0  0  0  0  0  0  0  0
   -0.1685    0.1202   -2.0253 C   0  0  0  0  0  0  0  0  0  0  0  0
   -0.2861   -1.2326   -2.4568 C   0  0  0  0  0  0  0  0  0  0  0  0
   -0.2633   -2.2484   -1.5842 C   0  0  0  0  0  0  0  0  0  0  0  0
   -0.1290   -2.0197   -0.1841 C   0  0  0  0  0  0  0  0  0  0  0  0
   -0.1005   -3.0673    0.7641 C   0  0  0  0  0  0  0  0  0  0  0  0
    0.0299   -2.7705    2.0917 C   0  0  0  0  0  0  0  0  0  0  0  0
    0.1282   -1.4222    2.4974 C   0  0  0  0  0  0  0  0  0  0  0  0
    0.2748   -1.0863    3.9511 C   0  0  0  0  0  0  0  0  0  0  0  0
    0.1056   -0.4063    1.6132 N   0  0  0  0  0  0  0  0  0  0  0  0
   -0.0146   -0.6888    0.3180 C   0  0  0  0  0  0  0  0  0  0  0  0
   -0.0300    0.4193   -0.6363 C   0  0  0  0  0  0  0  0  0  0  0  0
    0.0865    1.6567   -0.1656 N   0  0  0  0  0  0  0  0  0  0  0  0
   -0.8103    4.4957   -0.3238 H   0  0  0  0  0  0  0  0  0  0  0  0
    0.7076    4.0574    0.4743 H   0  0  0  0  0  0  0  0  0  0  0  0
    0.7314    4.7209   -1.1771 H   0  0  0  0  0  0  0  0  0  0  0  0
   -0.0672    3.3420   -3.0916 H   0  0  0  0  0  0  0  0  0  0  0  0
   -0.2822    1.0226   -3.9698 H   0  0  0  0  0  0  0  0  0  0  0  0
   -0.3853   -1.4177   -3.5242 H   0  0  0  0  0  0  0  0  0  0  0  0
   -0.3558   -3.2777   -1.9222 H   0  0  0  0  0  0  0  0  0  0  0  0
   -0.1801   -4.0771    0.4140 H   0  0  0  0  0  0  0  0  0  0  0  0
    0.0588   -3.5533    2.8403 H   0  0  0  0  0  0  0  0  0  0  0  0
    0.1466   -0.0174    4.1120 H   0  0  0  0  0  0  0  0  0  0  0  0
   -0.4731   -1.6280    4.5416 H   0  0  0  0  0  0  0  0  0  0  0  0
    1.2633   -1.3802    4.3081 H   0  0  0  0  0  0  0  0  0  0  0  0
  1  2  1  0
  2  3  2  0
  3  4  1  0
  4  5  2  0
  5  6  1  0
  6  7  2  0
  7  8  1  0
  8  9  2  0
  9 10  1  0
 10 11  2  0
 11 12  1  0
 11 13  1  0
 13 14  2  0
 14 15  1  0
 15 16  2  0
 16  2  1  0
 15  5  1  0
 14  8  1  0
  1 17  1  0
  1 18  1  0
  1 19  1  0
  3 20  1  0
  4 21  1  0
  6 22  1  0
  7 23  1  0
  9 24  1  0
 10 25  1  0
 12 26  1  0
 12 27  1  0
 12 28  1  0
M  END
$$$$

     RDKit          3D

 28 30  0  0  0  0  0  0  0  0999 V2000
    0.1780   -2.3535   -3.3646 C   0  0  0  0  0  0  0  0  0  0  0  0
    0.4303   -1.0698   -2.6321 C   0  0  0  0  0  0  0  0  0  0  0  0
    1.0619    0.0008   -3.3018 C   0  0  0  0  0  0  0  0  0  0  0  0
    1.2837    1.1736   -2.6385 C   0  0  0  0  0  0  0  0  0  0  0  0
    0.8819    1.2981   -1.2875 C   0  0  0  0  0  0  0  0  0  0  0  0
    1.0717    2.4913   -0.5304 C   0  0  0  0  0  0  0  0  0  0  0  0
    0.6846    2.5739    0.7504 C   0  0  0  0  0  0  0  0  0  0  0  0
    0.0781    1.4669    1.4120 C   0  0  0  0  0  0  0  0  0  0  0  0
   -0.3212    1.5074    2.7681 C   0  0  0  0  0  0  0  0  0  0  0  0
   -0.9026    0.4055    3.3317 C   0  0  0  0  0  0  0  0  0  0  0  0
   -1.0896   -0.7576    2.5509 C   0  0  0  0  0  0  0  0  0  0  0  0
   -1.7036   -1.9810    3.1636 C   0  0  0  0  0  0  0  0  0  0  0  0
   -0.7219   -0.8182    1.2587 N   0  0  0  0  0  0  0  0  0  0  0  0
   -0.1508    0.2479    0.7064 C   0  0  0  0  0  0  0  0  0  0  0  0
    0.2639    0.1598   -0.6923 C   0  0  0  0  0  0  0  0  0  0  0  0
    0.0516   -0.9833   -1.3421 N   0  0  0  0  0  0  0  0  0  0  0  0
   -0.2882   -2.1432   -4.3343 H   0  0  0  0  0  0  0  0  0  0  0  0
    1.1205   -2.8743   -3.5504 H   0  0  0  0  0  0  0  0  0  0  0  0
   -0.4760   -3.0044   -2.7915 H   0  0  0  0  0  0  0  0  0  0  0  0
    1.3601   -0.1267   -4.3357 H   0  0  0  0  0  0  0  0  0  0  0  0
    1.7601    2.0088   -3.1120 H   0  0  0  0  0  0  0  0  0  0  0  0
    1.5387    3.3366   -1.0291 H   0  0  0  0  0  0  0  0  0  0  0  0
    0.8328    3.4868    1.3221 H   0  0  0  0  0  0  0  0  0  0  0  0
   -0.1534    2.4050    3.3293 H   0  0  0  0  0  0  0  0  0  0  0  0
   -1.2204    0.4063    4.3658 H   0  0  0  0  0  0  0  0  0  0  0  0
   -1.0114   -2.4204    3.8854 H   0  0  0  0  0  0  0  0  0  0  0  0
   -2.6243   -1.7152    3.6959 H   0  0  0  0  0  0  0  0  0  0  0  0
   -1.9344   -2.7211    2.4018 H   0  0  0  0  0  0  0  0  0  0  0  0
  1  2  1  0
  2  3  2  0
  3  4  1  0
  4  5  2  0
  5  6  1  0
  6  7  2  0
  7  8  1  0
  8  9  2  0
  9 10  1  0
 10 11  2  0
 11 12  1  0
 11 13  1  0
 13 14  2  0
 14 15  1  0
 15 16  2  0
 16  2  1  0
 15  5  1  0
 14  8  1  0
  1 17  1  0
  1 18  1  0
  1 19  1  0
  3 20  1  0
  4 21  1  0
  6 22  1  0
  7 23  1  0
  9 24  1  0
 10 25  1  0
 12 26  1  0
 12 27  1  0
 12 28  1  0
M  END
$$$$
