
     RDKit          3D

 20 21  0  0  0  0  0  0  0  0999 V2000
   -3.4593   -2.5363    1.4451 Br  0  0  0  0  0  0  0  0  0  0  0  0
   -2.1577   -1.9617    0.1825 C   0  0  0  0  0  0  0  0  0  0  0  0
   -2.0838   -2.5528   -1.0618 C   0  0  0  0  0  0  0  0  0  0  0  0
   -1.1072   -2.0848   -1.9303 C   0  0  0  0  0  0  0  0  0  0  0  0
   -0.2658   -1.0669   -1.5223 C   0  0  0  0  0  0  0  0  0  0  0  0
   -0.4437   -0.5473   -0.2387 C   0  0  0  0  0  0  0  0  0  0  0  0
    0.4387    0.5494    0.2501 C   0  0  0  0  0  0  0  0  0  0  0  0
    0.2363    1.1008    1.5092 C   0  0  0  0  0  0  0  0  0  0  0  0
    1.0771    2.1233    1.9089 C   0  0  0  0  0  0  0  0  0  0  0  0
    2.0866    2.5507    1.0596 C   0  0  0  0  0  0  0  0  0  0  0  0
    2.1933    1.9149   -0.1667 C   0  0  0  0  0  0  0  0  0  0  0  0
    3.5586    2.4170   -1.3878 Br  0  0  0  0  0  0  0  0  0  0  0  0
    1.4088    0.9482   -0.5786 N   0  0  0  0  0  0  0  0  0  0  0  0
   -1.3813   -0.9853    0.6051 N   0  0  0  0  0  0  0  0  0  0  0  0
   -2.7631   -3.3519   -1.3476 H   0  0  0  0  0  0  0  0  0  0  0  0
   -1.0043   -2.5136   -2.9194 H   0  0  0  0  0  0  0  0  0  0  0  0
    0.5015   -0.6727   -2.1701 H   0  0  0  0  0  0  0  0  0  0  0  0
   -0.5529    0.7351    2.1464 H   0  0  0  0  0  0  0  0  0  0  0  0
    0.9525    2.5830    2.8817 H   0  0  0  0  0  0  0  0  0  0  0  0
    2.7658    3.3507    1.3349 H   0  0  0  0  0  0  0  0  0  0  0  0
  1  2  1  0
  2  3  2  0
  3  4  1  0
  4  5  2  0
  5  6  1  0
  6  7  1  0
  7  8  2  0
  8  9  1  0
  9 10  2  0
 10 11  1  0
 11 12  1  0
 11 13  2  0
  6 14  2  0
 14  2  1  0
 13  7  1  0
  3 15  1  0
  4 16  1  0
  5 17  1  0
  8 18  1  0
  9 19  1  0
 10 20  1  0
M  END
$$$$

     RDKit          3D

 20 21  0  0  0  0  0  0  0  0999 V2000
    0.2043   -2.5406   -3.7306 Br  0  0  0  0  0  0  0  0  0  0  0  0
    0.4553   -2.1820   -1.8807 C   0  0  0  0  0  0  0  0  0  0  0  0
    1.0023   -3.1412   -1.0562 C   0  0  0  0  0  0  0  0  0  0  0  0
    1.1433   -2.8183    0.2859 C   0  0  0  0  0  0  0  0  0  0  0  0
    0.7437   -1.5725    0.7326 C   0  0  0  0  0  0  0  0  0  0  0  0
    0.2112   -0.6834   -0.2035 C   0  0  0  0  0  0  0  0  0  0  0  0
   -0.2248    0.6805    0.2113 C   0  0  0  0  0  0  0  0  0  0  0  0
   -0.8025    1.5417   -0.7146 C   0  0  0  0  0  0  0  0  0  0  0  0
   -1.1856    2.7963   -0.2783 C   0  0  0  0  0  0  0  0  0  0  0  0
   -0.9835    3.1526    1.0455 C   0  0  0  0  0  0  0  0  0  0  0  0
   -0.3925    2.2099    1.8706 C   0  0  0  0  0  0  0  0  0  0  0  0
   -0.0610    2.6126    3.6962 Br  0  0  0  0  0  0  0  0  0  0  0  0
   -0.0238    1.0095    1.4910 N   0  0  0  0  0  0  0  0  0  0  0  0
    0.0635   -0.9858   -1.4960 N   0  0  0  0  0  0  0  0  0  0  0  0
    1.3107   -4.1088   -1.4425 H   0  0  0  0  0  0  0  0  0  0  0  0
    1.5595   -3.5388    0.9776 H   0  0  0  0  0  0  0  0  0  0  0  0
    0.8377   -1.2924    1.7697 H   0  0  0  0  0  0  0  0  0  0  0  0
   -0.9408    1.2370   -1.7388 H   0  0  0  0  0  0  0  0  0  0  0  0
   -1.6443    3.4966   -0.9650 H   0  0  0  0  0  0  0  0  0  0  0  0
   -1.2727    4.1270    1.4257 H   0  0  0  0  0  0  0  0  0  0  0  0
  1  2  1  0
  2  3  2  0
  3  4  1  0
  4  5  2  0
  5  6  1  0
  6  7  1  0
  7  8  2  0
  8  9  1  0
  9 10  2  0
 10 11  1  0
 11 12  1  0
 11 13  2  0
  6 14  2  0
 14  2  1  0
 13  7  1  0
  3 15  1  0
  4 16  1  0
  5 17  1  0
  8 18  1  0
  9 19  1  0
 10 20  1  0
M  END
$$$$

     RDKit          3D

 20 21  0  0  0  0  0  0  0  0999 V2000
    2.8727    2.8956   -1.9479 Br  0  0  0  0  0  0  0  0  0  0  0  0
    1.2335    2.3950   -1.1262 C   0  0  0  0  0  0  0  0  0  0  0  0
    0.2298    3.3235   -0.9492 C   0  0  0  0  0  0  0  0  0  0  0  0
   -0.9410    2.8850   -0.3473 C   0  0  0  0  0  0  0  0  0  0  0  0
   -1.0512    1.5626    0.0409 C   0  0  0  0  0  0  0  0  0  0  0  0
    0.0344    0.7174   -0.1970 C   0  0  0  0  0  0  0  0  0  0  0  0
   -0.0303   -0.7189    0.1983 C   0  0  0  0  0  0  0  0  0  0  0  0
    1.0510   -1.5582   -0.0391 C   0  0  0  0  0  0  0  0  0  0  0  0
    0.9382   -2.8818    0.3449 C   0  0  0  0  0  0  0  0  0  0  0  0
   -0.2292   -3.3247    0.9472 C   0  0  0  0  0  0  0  0  0  0  0  0
   -1.2382   -2.3934    1.1280 C   0  0  0  0  0  0  0  0  0  0  0  0
   -2.8730   -2.9073    1.9459 Br  0  0  0  0  0  0  0  0  0  0  0  0
   -1.1629   -1.1319    0.7773 N   0  0  0  0  0  0  0  0  0  0  0  0
    1.1650    1.1274   -0.7740 N   0  0  0  0  0  0  0  0  0  0  0  0
    0.3551    4.3558   -1.2647 H   0  0  0  0  0  0  0  0  0  0  0  0
   -1.7605    3.5725   -0.1853 H   0  0  0  0  0  0  0  0  0  0  0  0
   -1.9426    1.1832    0.5117 H   0  0  0  0  0  0  0  0  0  0  0  0
    1.9466   -1.1805   -0.5085 H   0  0  0  0  0  0  0  0  0  0  0  0
    1.7594   -3.5668    0.1796 H   0  0  0  0  0  0  0  0  0  0  0  0
   -0.3568   -4.3545    1.2656 H   0  0  0  0  0  0  0  0  0  0  0  0
  1  2  1  0
  2  3  2  0
  3  4  1  0
  4  5  2  0
  5  6  1  0
  6  7  1  0
  7  8  2  0
  8  9  1  0
  9 10  2  0
 10 11  1  0
 11 12  1  0
 11 13  2  0
  6 14  2  0
 14  2  1  0
 13  7  1  0
  3 15  1  0
  4 16  1  0
  5 17  1  0
  8 18  1  0
  9 19  1  0
 10 20  1  0
M  END
$$$$

     RDKit          3D

 20 21  0  0  0  0  0  0  0  0999 V2000
   -2.1589    3.9067    0.7374 Br  0  0  0  0  0  0  0  0  0  0  0  0
   -0.6862    2.7101    0.8477 C   0  0  0  0  0  0  0  0  0  0  0  0
    0.4740    3.0868    1.4927 C   0  0  0  0  0  0  0  0  0  0  0  0
    1.5092    2.1634    1.5314 C   0  0  0  0  0  0  0  0  0  0  0  0
    1.3357    0.9249    0.9421 C   0  0  0  0  0  0  0  0  0  0  0  0
    0.1111    0.6617    0.3234 C   0  0  0  0  0  0  0  0  0  0  0  0
   -0.1268   -0.6580   -0.3262 C   0  0  0  0  0  0  0  0  0  0  0  0
   -1.3359   -0.9211   -0.9602 C   0  0  0  0  0  0  0  0  0  0  0  0
   -1.5010   -2.1630   -1.5467 C   0  0  0  0  0  0  0  0  0  0  0  0
   -0.4720   -3.0903   -1.4824 C   0  0  0  0  0  0  0  0  0  0  0  0
    0.6850   -2.7090   -0.8236 C   0  0  0  0  0  0  0  0  0  0  0  0
    2.1506   -3.9130   -0.6986 Br  0  0  0  0  0  0  0  0  0  0  0  0
    0.8770   -1.5404   -0.2605 N   0  0  0  0  0  0  0  0  0  0  0  0
   -0.8894    1.5431    0.2704 N   0  0  0  0  0  0  0  0  0  0  0  0
    0.5715    4.0680    1.9502 H   0  0  0  0  0  0  0  0  0  0  0  0
    2.4434    2.4116    2.0200 H   0  0  0  0  0  0  0  0  0  0  0  0
    2.1138    0.1783    0.9547 H   0  0  0  0  0  0  0  0  0  0  0  0
   -2.1162   -0.1763   -0.9852 H   0  0  0  0  0  0  0  0  0  0  0  0
   -2.4227   -2.4072   -2.0598 H   0  0  0  0  0  0  0  0  0  0  0  0
   -0.5622   -4.0761   -1.9267 H   0  0  0  0  0  0  0  0  0  0  0  0
  1  2  1  0
  2  3  2  0
  3  4  1  0
  4  5  2  0
  5  6  1  0
  6  7  1  0
  7  8  2  0
  8  9  1  0
  9 10  2  0
 10 11  1  0
 11 12  1  0
 11 13  2  0
  6 14  2  0
 14  2  1  0
 13  7  1  0
  3 15  1  0
  4 16  1  0
  5 17  1  0
  8 18  1  0
  9 19  1  0
 10 20  1  0
M  END
$$$$

     RDKit          3D

 20 21  0  0  0  0  0  0  0  0999 V2000
   -1.5243   -1.9273   -3.7924 Br  0  0  0  0  0  0  0  0  0  0  0  0
   -0.8070   -0.5032   -2.7592 C   0  0  0  0  0  0  0  0  0  0  0  0
   -0.5207    0.7094   -3.3495 C   0  0  0  0  0  0  0  0  0  0  0  0
    0.0048    1.7026   -2.5360 C   0  0  0  0  0  0  0  0  0  0  0  0
    0.2129    1.4411   -1.1947 C   0  0  0  0  0  0  0  0  0  0  0  0
   -0.1175    0.1716   -0.7153 C   0  0  0  0  0  0  0  0  0  0  0  0
    0.0957   -0.1702    0.7202 C   0  0  0  0  0  0  0  0  0  0  0  0
   -0.2333   -1.4336    1.1965 C   0  0  0  0  0  0  0  0  0  0  0  0
   -0.0049   -1.6994    2.5343 C   0  0  0  0  0  0  0  0  0  0  0  0
    0.5315   -0.7133    3.3474 C   0  0  0  0  0  0  0  0  0  0  0  0
    0.8151    0.5068    2.7568 C   0  0  0  0  0  0  0  0  0  0  0  0
    1.5477    1.9181    3.7932 Br  0  0  0  0  0  0  0  0  0  0  0  0
    0.6110    0.7926    1.4928 N   0  0  0  0  0  0  0  0  0  0  0  0
   -0.6245   -0.7917   -1.4869 N   0  0  0  0  0  0  0  0  0  0  0  0
   -0.6938    0.8747   -4.4094 H   0  0  0  0  0  0  0  0  0  0  0  0
    0.2504    2.6719   -2.9489 H   0  0  0  0  0  0  0  0  0  0  0  0
    0.6205    2.1858   -0.5315 H   0  0  0  0  0  0  0  0  0  0  0  0
   -0.6498   -2.1800    0.5370 H   0  0  0  0  0  0  0  0  0  0  0  0
   -0.2408   -2.6728    2.9442 H   0  0  0  0  0  0  0  0  0  0  0  0
    0.7270   -0.8830    4.4013 H   0  0  0  0  0  0  0  0  0  0  0  0
  1  2  1  0
  2  3  2  0
  3  4  1  0
  4  5  2  0
  5  6  1  0
  6  7  1  0
  7  8  2  0
  8  9  1  0
  9 10  2  0
 10 11  1  0
 11 12  1  0
 11 13  2  0
  6 14  2  0
 14  2  1  0
 13  7  1  0
  3 15  1  0
  4 16  1  0
  5 17  1  0
  8 18  1  0
  9 19  1  0
 10 20  1  0
M  END
$$$$

     RDKit          3D

 20 21  0  0  0  0  0  0  0  0999 V2000
    0.2494   -3.9830    2.1179 Br  0  0  0  0  0  0  0  0  0  0  0  0
   -0.5254   -2.2921    1.7287 C   0  0  0  0  0  0  0  0  0  0  0  0
   -1.6820   -1.8937    2.3638 C   0  0  0  0  0  0  0  0  0  0  0  0
   -2.1861   -0.6436    2.0362 C   0  0  0  0  0  0  0  0  0  0  0  0
   -1.5259    0.1306    1.1001 C   0  0  0  0  0  0  0  0  0  0  0  0
   -0.3628   -0.3845    0.5245 C   0  0  0  0  0  0  0  0  0  0  0  0
    0.3834    0.4021   -0.4997 C   0  0  0  0  0  0  0  0  0  0  0  0
    1.5718   -0.0888   -1.0271 C   0  0  0  0  0  0  0  0  0  0  0  0
    2.2150    0.6686   -1.9880 C   0  0  0  0  0  0  0  0  0  0  0  0
    1.6621    1.8724   -2.3925 C   0  0  0  0  0  0  0  0  0  0  0  0
    0.4762    2.2574   -1.7905 C   0  0  0  0  0  0  0  0  0  0  0  0
   -0.3468    3.8962   -2.2850 Br  0  0  0  0  0  0  0  0  0  0  0  0
   -0.1549    1.5678   -0.8725 N   0  0  0  0  0  0  0  0  0  0  0  0
    0.1359   -1.5816    0.8379 N   0  0  0  0  0  0  0  0  0  0  0  0
   -2.1768   -2.5365    3.0862 H   0  0  0  0  0  0  0  0  0  0  0  0
   -3.0914   -0.2810    2.5056 H   0  0  0  0  0  0  0  0  0  0  0  0
   -1.8876    1.1056    0.8181 H   0  0  0  0  0  0  0  0  0  0  0  0
    1.9733   -1.0302   -0.6880 H   0  0  0  0  0  0  0  0  0  0  0  0
    3.1422    0.3217   -2.4271 H   0  0  0  0  0  0  0  0  0  0  0  0
    2.1305    2.4925   -3.1488 H   0  0  0  0  0  0  0  0  0  0  0  0
  1  2  1  0
  2  3  2  0
  3  4  1  0
  4  5  2  0
  5  6  1  0
  6  7  1  0
  7  8  2  0
  8  9  1  0
  9 10  2  0
 10 11  1  0
 11 12  1  0
 11 13  2  0
  6 14  2  0
 14  2  1  0
 13  7  1  0
  3 15  1  0
  4 16  1  0
  5 17  1  0
  8 18  1  0
  9 19  1  0
 10 20  1  0
M  END
$$$$

     RDKit          3D

 20 21  0  0  0  0  0  0  0  0999 V2000
    0.5350   -1.4767   -4.2450 Br  0  0  0  0  0  0  0  0  0  0  0  0
    0.1438   -0.1787   -2.9132 C   0  0  0  0  0  0  0  0  0  0  0  0
   -0.1859    1.1101   -3.2748 C   0  0  0  0  0  0  0  0  0  0  0  0
   -0.4476    2.0095   -2.2512 C   0  0  0  0  0  0  0  0  0  0  0  0
   -0.3701    1.5854   -0.9379 C   0  0  0  0  0  0  0  0  0  0  0  0
   -0.0383    0.2497   -0.7009 C   0  0  0  0  0  0  0  0  0  0  0  0
    0.0457   -0.2625    0.6963 C   0  0  0  0  0  0  0  0  0  0  0  0
    0.3155   -1.6040    0.9384 C   0  0  0  0  0  0  0  0  0  0  0  0
    0.3799   -2.0224    2.2546 C   0  0  0  0  0  0  0  0  0  0  0  0
    0.1863   -1.1054    3.2761 C   0  0  0  0  0  0  0  0  0  0  0  0
   -0.0680    0.2049    2.9073 C   0  0  0  0  0  0  0  0  0  0  0  0
   -0.3341    1.5323    4.2388 Br  0  0  0  0  0  0  0  0  0  0  0  0
   -0.1461    0.6327    1.6714 N   0  0  0  0  0  0  0  0  0  0  0  0
    0.2176   -0.6254   -1.6752 N   0  0  0  0  0  0  0  0  0  0  0  0
   -0.2385    1.4062   -4.3192 H   0  0  0  0  0  0  0  0  0  0  0  0
   -0.7102    3.0347   -2.4799 H   0  0  0  0  0  0  0  0  0  0  0  0
   -0.5629    2.2541   -0.1136 H   0  0  0  0  0  0  0  0  0  0  0  0
    0.4667   -2.2911    0.1209 H   0  0  0  0  0  0  0  0  0  0  0  0
    0.5831   -3.0606    2.4852 H   0  0  0  0  0  0  0  0  0  0  0  0
    0.2283   -1.3926    4.3217 H   0  0  0  0  0  0  0  0  0  0  0  0
  1  2  1  0
  2  3  2  0
  3  4  1  0
  4  5  2  0
  5  6  1  0
  6  7  1  0
  7  8  2  0
  8  9  1  0
  9 10  2  0
 10 11  1  0
 11 12  1  0
 11 13  2  0
  6 14  2  0
 14  2  1  0
 13  7  1  0
  3 15  1  0
  4 16  1  0
  5 17  1  0
  8 18  1  0
  9 19  1  0
 10 20  1  0
M  END
$$$$

     RDKit          3D

 20 21  0  0  0  0  0  0  0  0999 V2000
    4.0131    1.6480   -1.2837 Br  0  0  0  0  0  0  0  0  0  0  0  0
    2.8272    0.2960   -0.6721 C   0  0  0  0  0  0  0  0  0  0  0  0
    3.2958   -0.9761   -0.4200 C   0  0  0  0  0  0  0  0  0  0  0  0
    2.3768   -1.9145    0.0265 C   0  0  0  0  0  0  0  0  0  0  0  0
    1.0572   -1.5422    0.1997 C   0  0  0  0  0  0  0  0  0  0  0  0
    0.7049   -0.2219   -0.0859 C   0  0  0  0  0  0  0  0  0  0  0  0
   -0.7050    0.2316    0.0872 C   0  0  0  0  0  0  0  0  0  0  0  0
   -1.0554    1.5456   -0.1955 C   0  0  0  0  0  0  0  0  0  0  0  0
   -2.3777    1.9129   -0.0271 C   0  0  0  0  0  0  0  0  0  0  0  0
   -3.2968    0.9760    0.4202 C   0  0  0  0  0  0  0  0  0  0  0  0
   -2.8257   -0.3028    0.6701 C   0  0  0  0  0  0  0  0  0  0  0  0
   -4.0131   -1.6556    1.2751 Br  0  0  0  0  0  0  0  0  0  0  0  0
   -1.5810   -0.6846    0.5184 N   0  0  0  0  0  0  0  0  0  0  0  0
    1.5789    0.6891   -0.5195 N   0  0  0  0  0  0  0  0  0  0  0  0
    4.3422   -1.2291   -0.5650 H   0  0  0  0  0  0  0  0  0  0  0  0
    2.6897   -2.9292    0.2342 H   0  0  0  0  0  0  0  0  0  0  0  0
    0.3150   -2.2419    0.5450 H   0  0  0  0  0  0  0  0  0  0  0  0
   -0.3116    2.2502   -0.5329 H   0  0  0  0  0  0  0  0  0  0  0  0
   -2.6929    2.9248   -0.2465 H   0  0  0  0  0  0  0  0  0  0  0  0
   -4.3417    1.2237    0.5718 H   0  0  0  0  0  0  0  0  0  0  0  0
  1  2  1  0
  2  3  2  0
  3  4  1  0
  4  5  2  0
  5  6  1  0
  6  7  1  0
  7  8  2  0
  8  9  1  0
  9 10  2  0
 10 11  1  0
 11 12  1  0
 11 13  2  0
  6 14  2  0
 14  2  1  0
 13  7  1  0
  3 15  1  0
  4 16  1  0
  5 17  1  0
  8 18  1  0
  9 19  1  0
 10 20  1  0
M  END
$$$$

     RDKit          3D

 20 21  0  0  0  0  0  0  0  0999 V2000
   -4.1666    0.1016    1.7602 Br  0  0  0  0  0  0  0  0  0  0  0  0
   -2.8087   -0.5382    0.5963 C   0  0  0  0  0  0  0  0  0  0  0  0
   -3.0827   -1.5471   -0.3033 C   0  0  0  0  0  0  0  0  0  0  0  0
   -2.0458   -1.9631   -1.1252 C   0  0  0  0  0  0  0  0  0  0  0  0
   -0.8105   -1.3530   -1.0183 C   0  0  0  0  0  0  0  0  0  0  0  0
   -0.6585   -0.3393   -0.0693 C   0  0  0  0  0  0  0  0  0  0  0  0
    0.6555    0.3479    0.0844 C   0  0  0  0  0  0  0  0  0  0  0  0
    0.8204    1.3330    1.0501 C   0  0  0  0  0  0  0  0  0  0  0  0
    2.0603    1.9382    1.1472 C   0  0  0  0  0  0  0  0  0  0  0  0
    3.0819    1.5493    0.2931 C   0  0  0  0  0  0  0  0  0  0  0  0
    2.7936    0.5564   -0.6280 C   0  0  0  0  0  0  0  0  0  0  0  0
    4.1274   -0.0375   -1.8440 Br  0  0  0  0  0  0  0  0  0  0  0  0
    1.6309   -0.0375   -0.7468 N   0  0  0  0  0  0  0  0  0  0  0  0
   -1.6443    0.0647    0.7337 N   0  0  0  0  0  0  0  0  0  0  0  0
   -4.0703   -1.9965   -0.3613 H   0  0  0  0  0  0  0  0  0  0  0  0
   -2.2018   -2.7583   -1.8434 H   0  0  0  0  0  0  0  0  0  0  0  0
    0.0162   -1.6419   -1.6466 H   0  0  0  0  0  0  0  0  0  0  0  0
    0.0010    1.6124    1.6953 H   0  0  0  0  0  0  0  0  0  0  0  0
    2.2342    2.7095    1.8863 H   0  0  0  0  0  0  0  0  0  0  0  0
    4.0678    1.9996    0.3396 H   0  0  0  0  0  0  0  0  0  0  0  0
  1  2  1  0
  2  3  2  0
  3  4  1  0
  4  5  2  0
  5  6  1  0
  6  7  1  0
  7  8  2  0
  8  9  1  0
  9 10  2  0
 10 11  1  0
 11 12  1  0
 11 13  2  0
  6 14  2  0
 14  2  1  0
 13  7  1  0
  3 15  1  0
  4 16  1  0
  5 17  1  0
  8 18  1  0
  9 19  1  0
 10 20  1  0
M  END
$$$$

     RDKit          3D

 20 21  0  0  0  0  0  0  0  0999 V2000
   -1.2648   -1.1152   -4.2048 Br  0  0  0  0  0  0  0  0  0  0  0  0
   -0.4063   -0.0366   -2.8957 C   0  0  0  0  0  0  0  0  0  0  0  0
    0.2703    1.1046   -3.2717 C   0  0  0  0  0  0  0  0  0  0  0  0
    0.8848    1.8380   -2.2675 C   0  0  0  0  0  0  0  0  0  0  0  0
    0.7957    1.4050   -0.9585 C   0  0  0  0  0  0  0  0  0  0  0  0
    0.0699    0.2393   -0.7025 C   0  0  0  0  0  0  0  0  0  0  0  0
   -0.0704   -0.2628    0.6945 C   0  0  0  0  0  0  0  0  0  0  0  0
   -0.8443   -1.3842    0.9688 C   0  0  0  0  0  0  0  0  0  0  0  0
   -0.9393   -1.7986    2.2844 C   0  0  0  0  0  0  0  0  0  0  0  0
   -0.2678   -1.0961    3.2733 C   0  0  0  0  0  0  0  0  0  0  0  0
    0.4732    0.0032    2.8753 C   0  0  0  0  0  0  0  0  0  0  0  0
    1.4364    1.0173    4.1605 Br  0  0  0  0  0  0  0  0  0  0  0  0
    0.5803    0.4247    1.6391 N   0  0  0  0  0  0  0  0  0  0  0  0
   -0.5205   -0.4782   -1.6593 N   0  0  0  0  0  0  0  0  0  0  0  0
    0.3175    1.4127   -4.3123 H   0  0  0  0  0  0  0  0  0  0  0  0
    1.4290    2.7427   -2.5063 H   0  0  0  0  0  0  0  0  0  0  0  0
    1.2629    1.9458   -0.1514 H   0  0  0  0  0  0  0  0  0  0  0  0
   -1.3558   -1.9071    0.1763 H   0  0  0  0  0  0  0  0  0  0  0  0
   -1.5322   -2.6673    2.5412 H   0  0  0  0  0  0  0  0  0  0  0  0
   -0.3185   -1.3872    4.3166 H   0  0  0  0  0  0  0  0  0  0  0  0
  1  2  1  0
  2  3  2  0
  3  4  1  0
  4  5  2  0
  5  6  1  0
  6  7  1  0
  7  8  2  0
  8  9  1  0
  9 10  2  0
 10 11  1  0
 11 12  1  0
 11 13  2  0
  6 14  2  0
 14  2  1  0
 13  7  1  0
  3 15  1  0
  4 16  1  0
  5 17  1  0
  8 18  1  0
  9 19  1  0
 10 20  1  0
M  END
$$$$

     RDKit          3D

 20 21  0  0  0  0  0  0  0  0999 V2000
   -0.3502   -1.5506    4.2289 Br  0  0  0  0  0  0  0  0  0  0  0  0
    0.2524   -1.6017    2.4281 C   0  0  0  0  0  0  0  0  0  0  0  0
    1.0602   -2.6305    1.9910 C   0  0  0  0  0  0  0  0  0  0  0  0
    1.4668   -2.5967    0.6646 C   0  0  0  0  0  0  0  0  0  0  0  0
    1.0515   -1.5572   -0.1468 C   0  0  0  0  0  0  0  0  0  0  0  0
    0.2293   -0.5755    0.4127 C   0  0  0  0  0  0  0  0  0  0  0  0
   -0.2475    0.5715   -0.4124 C   0  0  0  0  0  0  0  0  0  0  0  0
   -1.0600    1.5523    0.1462 C   0  0  0  0  0  0  0  0  0  0  0  0
   -1.4613    2.5975   -0.6640 C   0  0  0  0  0  0  0  0  0  0  0  0
   -1.0511    2.6336   -1.9880 C   0  0  0  0  0  0  0  0  0  0  0  0
   -0.2478    1.5959   -2.4297 C   0  0  0  0  0  0  0  0  0  0  0  0
    0.3561    1.5572   -4.2298 Br  0  0  0  0  0  0  0  0  0  0  0  0
    0.1491    0.5907   -1.6887 N   0  0  0  0  0  0  0  0  0  0  0  0
   -0.1673   -0.5973    1.6858 N   0  0  0  0  0  0  0  0  0  0  0  0
    1.3661   -3.4306    2.6596 H   0  0  0  0  0  0  0  0  0  0  0  0
    2.1029   -3.3787    0.2697 H   0  0  0  0  0  0  0  0  0  0  0  0
    1.3443   -1.4970   -1.1832 H   0  0  0  0  0  0  0  0  0  0  0  0
   -1.3656    1.4907    1.1781 H   0  0  0  0  0  0  0  0  0  0  0  0
   -2.0893    3.3858   -0.2682 H   0  0  0  0  0  0  0  0  0  0  0  0
   -1.3384    3.4405   -2.6537 H   0  0  0  0  0  0  0  0  0  0  0  0
  1  2  1  0
  2  3  2  0
  3  4  1  0
  4  5  2  0
  5  6  1  0
  6  7  1  0
  7  8  2  0
  8  9  1  0
  9 10  2  0
 10 11  1  0
 11 12  1  0
 11 13  2  0
  6 14  2  0
 14  2  1  0
 13  7  1  0
  3 15  1  0
  4 16  1  0
  5 17  1  0
  8 18  1  0
  9 19  1  0
 10 20  1  0
M  END
$$$$

     RDKit          3D

 20 21  0  0  0  0  0  0  0  0999 V2000
    1.3351   -1.3224   -4.1168 Br  0  0  0  0  0  0  0  0  0  0  0  0
    0.5277   -0.1360   -2.8701 C   0  0  0  0  0  0  0  0  0  0  0  0
   -0.0113    1.0586   -3.2969 C   0  0  0  0  0  0  0  0  0  0  0  0
   -0.5935    1.8723   -2.3351 C   0  0  0  0  0  0  0  0  0  0  0  0
   -0.6067    1.4625   -1.0151 C   0  0  0  0  0  0  0  0  0  0  0  0
   -0.0242    0.2319   -0.7065 C   0  0  0  0  0  0  0  0  0  0  0  0
   -0.0001   -0.2535    0.7028 C   0  0  0  0  0  0  0  0  0  0  0  0
    0.6136   -1.4597    1.0156 C   0  0  0  0  0  0  0  0  0  0  0  0
    0.6211   -1.8561    2.3401 C   0  0  0  0  0  0  0  0  0  0  0  0
    0.0258   -1.0513    3.2995 C   0  0  0  0  0  0  0  0  0  0  0  0
   -0.5575    0.1269    2.8626 C   0  0  0  0  0  0  0  0  0  0  0  0
   -1.3876    1.2965    4.1081 Br  0  0  0  0  0  0  0  0  0  0  0  0
   -0.5854    0.5303    1.6151 N   0  0  0  0  0  0  0  0  0  0  0  0
    0.5372   -0.5608   -1.6225 N   0  0  0  0  0  0  0  0  0  0  0  0
    0.0204    1.3494   -4.3432 H   0  0  0  0  0  0  0  0  0  0  0  0
   -1.0318    2.8211   -2.6155 H   0  0  0  0  0  0  0  0  0  0  0  0
   -1.0575    2.0622   -0.2402 H   0  0  0  0  0  0  0  0  0  0  0  0
    1.0634   -2.0636    0.2433 H   0  0  0  0  0  0  0  0  0  0  0  0
    1.0962   -2.7861    2.6248 H   0  0  0  0  0  0  0  0  0  0  0  0
    0.0151   -1.3221    4.3500 H   0  0  0  0  0  0  0  0  0  0  0  0
  1  2  1  0
  2  3  2  0
  3  4  1  0
  4  5  2  0
  5  6  1  0
  6  7  1  0
  7  8  2  0
  8  9  1  0
  9 10  2  0
 10 11  1  0
 11 12  1  0
 11 13  2  0
  6 14  2  0
 14  2  1  0
 13  7  1  0
  3 15  1  0
  4 16  1  0
  5 17  1  0
  8 18  1  0
  9 19  1  0
 10 20  1  0
M  END
$$$$
