
     RDKit          3D

 18 19  0  0  0  0  0  0  0  0999 V2000
   -0.0839   -2.9797    0.3358 C   0  0  0  0  0  0  0  0  0  0  0  0
    0.9328   -2.2285    0.9236 C   0  0  0  0  0  0  0  0  0  0  0  0
    0.9508   -0.8550    0.7534 C   0  0  0  0  0  0  0  0  0  0  0  0
   -0.0672   -0.2642   -0.0142 C   0  0  0  0  0  0  0  0  0  0  0  0
   -0.1033    1.1926   -0.2253 C   0  0  0  0  0  0  0  0  0  0  0  0
    0.7339    2.2190    0.1930 C   0  0  0  0  0  0  0  0  0  0  0  0
    0.1441    3.3824   -0.3533 C   0  0  0  0  0  0  0  0  0  0  0  0
   -0.9579    3.0866   -1.0435 N   0  0  0  0  0  0  0  0  0  0  0  0
   -1.0931    1.7636   -0.9449 N   0  0  0  0  0  0  0  0  0  0  0  0
   -1.0602   -0.9855   -0.5921 N   0  0  0  0  0  0  0  0  0  0  0  0
   -1.0531   -2.3041   -0.4194 C   0  0  0  0  0  0  0  0  0  0  0  0
   -0.1335   -4.0479    0.4466 H   0  0  0  0  0  0  0  0  0  0  0  0
    1.6970   -2.7014    1.5131 H   0  0  0  0  0  0  0  0  0  0  0  0
    1.7216   -0.2405    1.1812 H   0  0  0  0  0  0  0  0  0  0  0  0
    1.6007    2.1432    0.7883 H   0  0  0  0  0  0  0  0  0  0  0  0
    0.4833    4.3984   -0.2748 H   0  0  0  0  0  0  0  0  0  0  0  0
   -1.8591    1.2726   -1.3716 H   0  0  0  0  0  0  0  0  0  0  0  0
   -1.8527   -2.8515   -0.8957 H   0  0  0  0  0  0  0  0  0  0  0  0
  1  2  2  0
  2  3  1  0
  3  4  2  0
  4  5  1  0
  5  6  2  0
  6  7  1  0
  7  8  2  0
  8  9  1  0
  4 10  1  0
 10 11  2  0
 11  1  1  0
  9  5  1  0
  1 12  1  0
  2 13  1  0
  3 14  1  0
  6 15  1  0
  7 16  1  0
  9 17  1  0
 11 18  1  0
M  END
$$$$

     RDKit          3D

 18 19  0  0  0  0  0  0  0  0999 V2000
    1.2026   -1.6665    2.1843 C   0  0  0  0  0  0  0  0  0  0  0  0
    1.9613   -0.6916    1.5371 C   0  0  0  0  0  0  0  0  0  0  0  0
    1.3824    0.0706    0.5386 C   0  0  0  0  0  0  0  0  0  0  0  0
    0.0414   -0.1806    0.2004 C   0  0  0  0  0  0  0  0  0  0  0  0
   -0.6286    0.5909   -0.8601 C   0  0  0  0  0  0  0  0  0  0  0  0
   -0.2039    1.6495   -1.6526 C   0  0  0  0  0  0  0  0  0  0  0  0
   -1.3176    1.9244   -2.4783 C   0  0  0  0  0  0  0  0  0  0  0  0
   -2.3343    1.1042   -2.2066 N   0  0  0  0  0  0  0  0  0  0  0  0
   -1.9016    0.3160   -1.2231 N   0  0  0  0  0  0  0  0  0  0  0  0
   -0.7010   -1.1358    0.8137 N   0  0  0  0  0  0  0  0  0  0  0  0
   -0.1276   -1.8473    1.7775 C   0  0  0  0  0  0  0  0  0  0  0  0
    1.6136   -2.2696    2.9726 H   0  0  0  0  0  0  0  0  0  0  0  0
    2.9876   -0.5213    1.8069 H   0  0  0  0  0  0  0  0  0  0  0  0
    1.9317    0.8362    0.0218 H   0  0  0  0  0  0  0  0  0  0  0  0
    0.7316    2.1348   -1.6343 H   0  0  0  0  0  0  0  0  0  0  0  0
   -1.4056    2.6701   -3.2459 H   0  0  0  0  0  0  0  0  0  0  0  0
   -2.4840   -0.3895   -0.8018 H   0  0  0  0  0  0  0  0  0  0  0  0
   -0.7480   -2.5943    2.2498 H   0  0  0  0  0  0  0  0  0  0  0  0
  1  2  2  0
  2  3  1  0
  3  4  2  0
  4  5  1  0
  5  6  2  0
  6  7  1  0
  7  8  2  0
  8  9  1  0
  4 10  1  0
 10 11  2  0
 11  1  1  0
  9  5  1  0
  1 12  1  0
  2 13  1  0
  3 14  1  0
  6 15  1  0
  7 16  1  0
  9 17  1  0
 11 18  1  0
M  END
$$$$

     RDKit          3D

 18 19  0  0  0  0  0  0  0  0999 V2000
    1.6844   -1.3065    2.1099 C   0  0  0  0  0  0  0  0  0  0  0  0
    0.5315   -0.6017    2.4557 C   0  0  0  0  0  0  0  0  0  0  0  0
   -0.2269   -0.0037    1.4647 C   0  0  0  0  0  0  0  0  0  0  0  0
    0.2027   -0.1303    0.1316 C   0  0  0  0  0  0  0  0  0  0  0  0
   -0.5671    0.4723   -0.9689 C   0  0  0  0  0  0  0  0  0  0  0  0
   -1.7548    1.1892   -0.9805 C   0  0  0  0  0  0  0  0  0  0  0  0
   -1.9668    1.4746   -2.3484 C   0  0  0  0  0  0  0  0  0  0  0  0
   -0.9855    0.9773   -3.1036 N   0  0  0  0  0  0  0  0  0  0  0  0
   -0.1578    0.3710   -2.2540 N   0  0  0  0  0  0  0  0  0  0  0  0
    1.3280   -0.8028   -0.2132 N   0  0  0  0  0  0  0  0  0  0  0  0
    2.0376   -1.3721    0.7547 C   0  0  0  0  0  0  0  0  0  0  0  0
    2.2960   -1.7869    2.8514 H   0  0  0  0  0  0  0  0  0  0  0  0
    0.2238   -0.5199    3.4818 H   0  0  0  0  0  0  0  0  0  0  0  0
   -1.1210    0.5483    1.6924 H   0  0  0  0  0  0  0  0  0  0  0  0
   -2.3535    1.4587   -0.1565 H   0  0  0  0  0  0  0  0  0  0  0  0
   -2.7752    2.0234   -2.7932 H   0  0  0  0  0  0  0  0  0  0  0  0
    0.6814   -0.0867   -2.5678 H   0  0  0  0  0  0  0  0  0  0  0  0
    2.9232   -1.9042    0.4440 H   0  0  0  0  0  0  0  0  0  0  0  0
  1  2  2  0
  2  3  1  0
  3  4  2  0
  4  5  1  0
  5  6  2  0
  6  7  1  0
  7  8  2  0
  8  9  1  0
  4 10  1  0
 10 11  2  0
 11  1  1  0
  9  5  1  0
  1 12  1  0
  2 13  1  0
  3 14  1  0
  6 15  1  0
  7 16  1  0
  9 17  1  0
 11 18  1  0
M  END
$$$$

     RDKit          3D

 18 19  0  0  0  0  0  0  0  0999 V2000
    0.4788    2.2389   -1.9399 C   0  0  0  0  0  0  0  0  0  0  0  0
    0.7375    2.4406   -0.5848 C   0  0  0  0  0  0  0  0  0  0  0  0
    0.5207    1.4113    0.3200 C   0  0  0  0  0  0  0  0  0  0  0  0
    0.0365    0.1806   -0.1827 C   0  0  0  0  0  0  0  0  0  0  0  0
   -0.2231   -0.9608    0.7152 C   0  0  0  0  0  0  0  0  0  0  0  0
   -0.7112   -2.2103    0.3649 C   0  0  0  0  0  0  0  0  0  0  0  0
   -0.7651   -2.9175    1.5934 C   0  0  0  0  0  0  0  0  0  0  0  0
   -0.3364   -2.1607    2.5994 N   0  0  0  0  0  0  0  0  0  0  0  0
   -0.0229   -0.9845    2.0519 N   0  0  0  0  0  0  0  0  0  0  0  0
   -0.2124   -0.0164   -1.4959 N   0  0  0  0  0  0  0  0  0  0  0  0
    0.0008    0.9780   -2.3407 C   0  0  0  0  0  0  0  0  0  0  0  0
    0.6285    3.0122   -2.6675 H   0  0  0  0  0  0  0  0  0  0  0  0
    1.1051    3.3840   -0.2268 H   0  0  0  0  0  0  0  0  0  0  0  0
    0.7089    1.5373    1.3701 H   0  0  0  0  0  0  0  0  0  0  0  0
   -0.9859   -2.5384   -0.5944 H   0  0  0  0  0  0  0  0  0  0  0  0
   -1.0857   -3.9247    1.7715 H   0  0  0  0  0  0  0  0  0  0  0  0
    0.3357   -0.2550    2.6259 H   0  0  0  0  0  0  0  0  0  0  0  0
   -0.2097    0.7854   -3.3797 H   0  0  0  0  0  0  0  0  0  0  0  0
  1  2  2  0
  2  3  1  0
  3  4  2  0
  4  5  1  0
  5  6  2  0
  6  7  1  0
  7  8  2  0
  8  9  1  0
  4 10  1  0
 10 11  2  0
 11  1  1  0
  9  5  1  0
  1 12  1  0
  2 13  1  0
  3 14  1  0
  6 15  1  0
  7 16  1  0
  9 17  1  0
 11 18  1  0
M  END
$$$$

     RDKit          3D

 18 19  0  0  0  0  0  0  0  0999 V2000
    2.6121    1.4069    0.4594 C   0  0  0  0  0  0  0  0  0  0  0  0
    2.5801    0.2753   -0.3531 C   0  0  0  0  0  0  0  0  0  0  0  0
    1.3790   -0.3846   -0.5724 C   0  0  0  0  0  0  0  0  0  0  0  0
    0.2182    0.1276    0.0539 C   0  0  0  0  0  0  0  0  0  0  0  0
   -1.1011   -0.5063   -0.1316 C   0  0  0  0  0  0  0  0  0  0  0  0
   -2.2983   -0.1553    0.4738 C   0  0  0  0  0  0  0  0  0  0  0  0
   -3.2361   -1.0794   -0.0518 C   0  0  0  0  0  0  0  0  0  0  0  0
   -2.6572   -1.9100   -0.9138 N   0  0  0  0  0  0  0  0  0  0  0  0
   -1.3720   -1.5522   -0.9435 N   0  0  0  0  0  0  0  0  0  0  0  0
    0.2496    1.2178    0.8509 N   0  0  0  0  0  0  0  0  0  0  0  0
    1.4049    1.8339    1.0393 C   0  0  0  0  0  0  0  0  0  0  0  0
    3.5206    1.9454    0.6502 H   0  0  0  0  0  0  0  0  0  0  0  0
    3.4742   -0.0964   -0.8167 H   0  0  0  0  0  0  0  0  0  0  0  0
    1.3290   -1.2616   -1.1916 H   0  0  0  0  0  0  0  0  0  0  0  0
   -2.4657    0.6161    1.1672 H   0  0  0  0  0  0  0  0  0  0  0  0
   -4.2844   -1.1572    0.1585 H   0  0  0  0  0  0  0  0  0  0  0  0
   -0.7435   -2.0203   -1.5573 H   0  0  0  0  0  0  0  0  0  0  0  0
    1.3911    2.7004    1.6784 H   0  0  0  0  0  0  0  0  0  0  0  0
  1  2  2  0
  2  3  1  0
  3  4  2  0
  4  5  1  0
  5  6  2  0
  6  7  1  0
  7  8  2  0
  8  9  1  0
  4 10  1  0
 10 11  2  0
 11  1  1  0
  9  5  1  0
  1 12  1  0
  2 13  1  0
  3 14  1  0
  6 15  1  0
  7 16  1  0
  9 17  1  0
 11 18  1  0
M  END
$$$$

     RDKit          3D

 18 19  0  0  0  0  0  0  0  0999 V2000
    0.0915   -2.9082   -0.7215 C   0  0  0  0  0  0  0  0  0  0  0  0
   -0.3262   -2.5056    0.5463 C   0  0  0  0  0  0  0  0  0  0  0  0
   -0.3603   -1.1591    0.8566 C   0  0  0  0  0  0  0  0  0  0  0  0
    0.0380   -0.2383   -0.1281 C   0  0  0  0  0  0  0  0  0  0  0  0
    0.0206    1.2095    0.1406 C   0  0  0  0  0  0  0  0  0  0  0  0
   -0.3824    1.9485    1.2443 C   0  0  0  0  0  0  0  0  0  0  0  0
   -0.1422    3.2880    0.8620 C   0  0  0  0  0  0  0  0  0  0  0  0
    0.3651    3.3564   -0.3700 N   0  0  0  0  0  0  0  0  0  0  0  0
    0.4492    2.0945   -0.7875 N   0  0  0  0  0  0  0  0  0  0  0  0
    0.4531   -0.6197   -1.3621 N   0  0  0  0  0  0  0  0  0  0  0  0
    0.4708   -1.9181   -1.6395 C   0  0  0  0  0  0  0  0  0  0  0  0
    0.1274   -3.9448   -0.9990 H   0  0  0  0  0  0  0  0  0  0  0  0
   -0.6296   -3.2277    1.2821 H   0  0  0  0  0  0  0  0  0  0  0  0
   -0.6759   -0.8118    1.8229 H   0  0  0  0  0  0  0  0  0  0  0  0
   -0.7804    1.5893    2.1522 H   0  0  0  0  0  0  0  0  0  0  0  0
   -0.3156    4.1790    1.4345 H   0  0  0  0  0  0  0  0  0  0  0  0
    0.8015    1.8560   -1.7002 H   0  0  0  0  0  0  0  0  0  0  0  0
    0.7955   -2.1878   -2.6336 H   0  0  0  0  0  0  0  0  0  0  0  0
  1  2  2  0
  2  3  1  0
  3  4  2  0
  4  5  1  0
  5  6  2  0
  6  7  1  0
  7  8  2  0
  8  9  1  0
  4 10  1  0
 10 11  2  0
 11  1  1  0
  9  5  1  0
  1 12  1  0
  2 13  1  0
  3 14  1  0
  6 15  1  0
  7 16  1  0
  9 17  1  0
 11 18  1  0
M  END
$$$$

     RDKit          3D

 18 19  0  0  0  0  0  0  0  0999 V2000
    1.1023    0.4813   -2.7466 C   0  0  0  0  0  0  0  0  0  0  0  0
    1.9356    0.0614   -1.7107 C   0  0  0  0  0  0  0  0  0  0  0  0
    1.4033   -0.1568   -0.4537 C   0  0  0  0  0  0  0  0  0  0  0  0
    0.0270    0.0613   -0.2657 C   0  0  0  0  0  0  0  0  0  0  0  0
   -0.5969   -0.1504    1.0513 C   0  0  0  0  0  0  0  0  0  0  0  0
   -0.0743   -0.5501    2.2736 C   0  0  0  0  0  0  0  0  0  0  0  0
   -1.1937   -0.5580    3.1358 C   0  0  0  0  0  0  0  0  0  0  0  0
   -2.3027   -0.1877    2.4920 N   0  0  0  0  0  0  0  0  0  0  0  0
   -1.9216    0.0488    1.2380 N   0  0  0  0  0  0  0  0  0  0  0  0
   -0.7930    0.4669   -1.2673 N   0  0  0  0  0  0  0  0  0  0  0  0
   -0.2587    0.6693   -2.4668 C   0  0  0  0  0  0  0  0  0  0  0  0
    1.4798    0.6620   -3.7357 H   0  0  0  0  0  0  0  0  0  0  0  0
    2.9843   -0.1015   -1.8791 H   0  0  0  0  0  0  0  0  0  0  0  0
    2.0129   -0.4843    0.3681 H   0  0  0  0  0  0  0  0  0  0  0  0
    0.9258   -0.7954    2.5013 H   0  0  0  0  0  0  0  0  0  0  0  0
   -1.2223   -0.8026    4.1808 H   0  0  0  0  0  0  0  0  0  0  0  0
   -2.5706    0.3467    0.5280 H   0  0  0  0  0  0  0  0  0  0  0  0
   -0.9374    0.9889   -3.2433 H   0  0  0  0  0  0  0  0  0  0  0  0
  1  2  2  0
  2  3  1  0
  3  4  2  0
  4  5  1  0
  5  6  2  0
  6  7  1  0
  7  8  2  0
  8  9  1  0
  4 10  1  0
 10 11  2  0
 11  1  1  0
  9  5  1  0
  1 12  1  0
  2 13  1  0
  3 14  1  0
  6 15  1  0
  7 16  1  0
  9 17  1  0
 11 18  1  0
M  END
$$$$

     RDKit          3D

 18 19  0  0  0  0  0  0  0  0999 V2000
    2.6369   -1.0383    0.9817 C   0  0  0  0  0  0  0  0  0  0  0  0
    2.2702   -1.1852   -0.3563 C   0  0  0  0  0  0  0  0  0  0  0  0
    1.0463   -0.7033   -0.7852 C   0  0  0  0  0  0  0  0  0  0  0  0
    0.2075   -0.0831    0.1572 C   0  0  0  0  0  0  0  0  0  0  0  0
   -1.1020    0.4613   -0.2375 C   0  0  0  0  0  0  0  0  0  0  0  0
   -1.7352    0.5500   -1.4684 C   0  0  0  0  0  0  0  0  0  0  0  0
   -2.9563    1.1993   -1.1766 C   0  0  0  0  0  0  0  0  0  0  0  0
   -3.0595    1.4744    0.1246 N   0  0  0  0  0  0  0  0  0  0  0  0
   -1.9301    1.0251    0.6702 N   0  0  0  0  0  0  0  0  0  0  0  0
    0.5495    0.0529    1.4624 N   0  0  0  0  0  0  0  0  0  0  0  0
    1.7314   -0.4114    1.8500 C   0  0  0  0  0  0  0  0  0  0  0  0
    3.5827   -1.3907    1.3501 H   0  0  0  0  0  0  0  0  0  0  0  0
    2.9292   -1.6602   -1.0595 H   0  0  0  0  0  0  0  0  0  0  0  0
    0.7277   -0.8016   -1.8074 H   0  0  0  0  0  0  0  0  0  0  0  0
   -1.3780    0.2141   -2.4010 H   0  0  0  0  0  0  0  0  0  0  0  0
   -3.7460    1.4615   -1.8535 H   0  0  0  0  0  0  0  0  0  0  0  0
   -1.7466    1.1174    1.6547 H   0  0  0  0  0  0  0  0  0  0  0  0
    1.9724   -0.2821    2.8945 H   0  0  0  0  0  0  0  0  0  0  0  0
  1  2  2  0
  2  3  1  0
  3  4  2  0
  4  5  1  0
  5  6  2  0
  6  7  1  0
  7  8  2  0
  8  9  1  0
  4 10  1  0
 10 11  2  0
 11  1  1  0
  9  5  1  0
  1 12  1  0
  2 13  1  0
  3 14  1  0
  6 15  1  0
  7 16  1  0
  9 17  1  0
 11 18  1  0
M  END
$$$$

     RDKit          3D

 18 19  0  0  0  0  0  0  0  0999 V2000
    2.3910   -0.1748    1.7978 C   0  0  0  0  0  0  0  0  0  0  0  0
    1.8041    1.0601    1.5193 C   0  0  0  0  0  0  0  0  0  0  0  0
    0.6995    1.1170    0.6888 C   0  0  0  0  0  0  0  0  0  0  0  0
    0.2092   -0.0857    0.1527 C   0  0  0  0  0  0  0  0  0  0  0  0
   -0.9609   -0.0913   -0.7392 C   0  0  0  0  0  0  0  0  0  0  0  0
   -1.7586    0.9277   -1.2407 C   0  0  0  0  0  0  0  0  0  0  0  0
   -2.7057    0.2520   -2.0444 C   0  0  0  0  0  0  0  0  0  0  0  0
   -2.4959   -1.0666   -2.0364 N   0  0  0  0  0  0  0  0  0  0  0  0
   -1.4434   -1.2505   -1.2405 N   0  0  0  0  0  0  0  0  0  0  0  0
    0.7688   -1.2942    0.4175 N   0  0  0  0  0  0  0  0  0  0  0  0
    1.8339   -1.3214    1.2119 C   0  0  0  0  0  0  0  0  0  0  0  0
    3.2492   -0.2595    2.4391 H   0  0  0  0  0  0  0  0  0  0  0  0
    2.1949    1.9664    1.9447 H   0  0  0  0  0  0  0  0  0  0  0  0
    0.2203    2.0482    0.4467 H   0  0  0  0  0  0  0  0  0  0  0  0
   -1.6837    1.9612   -1.0487 H   0  0  0  0  0  0  0  0  0  0  0  0
   -3.5016    0.6746   -2.6277 H   0  0  0  0  0  0  0  0  0  0  0  0
   -1.0829   -2.1681   -1.0402 H   0  0  0  0  0  0  0  0  0  0  0  0
    2.2618   -2.2954    1.3993 H   0  0  0  0  0  0  0  0  0  0  0  0
  1  2  2  0
  2  3  1  0
  3  4  2  0
  4  5  1  0
  5  6  2  0
  6  7  1  0
  7  8  2  0
  8  9  1  0
  4 10  1  0
 10 11  2  0
 11  1  1  0
  9  5  1  0
  1 12  1  0
  2 13  1  0
  3 14  1  0
  6 15  1  0
  7 16  1  0
  9 17  1  0
 11 18  1  0
M  END
$$$$

     RDKit          3D

 18 19  0  0  0  0  0  0  0  0999 V2000
   -1.3453   -1.7402   -2.0399 C   0  0  0  0  0  0  0  0  0  0  0  0
   -0.1218   -1.1340   -2.3221 C   0  0  0  0  0  0  0  0  0  0  0  0
    0.4808   -0.3361   -1.3668 C   0  0  0  0  0  0  0  0  0  0  0  0
   -0.1711   -0.1653   -0.1332 C   0  0  0  0  0  0  0  0  0  0  0  0
    0.4171    0.6756    0.9243 C   0  0  0  0  0  0  0  0  0  0  0  0
    1.6200    1.3632    1.0104 C   0  0  0  0  0  0  0  0  0  0  0  0
    1.5760    1.9670    2.2878 C   0  0  0  0  0  0  0  0  0  0  0  0
    0.4388    1.6734    2.9224 N   0  0  0  0  0  0  0  0  0  0  0  0
   -0.2384    0.8888    2.0875 N   0  0  0  0  0  0  0  0  0  0  0  0
   -1.3609   -0.7498    0.1512 N   0  0  0  0  0  0  0  0  0  0  0  0
   -1.9187   -1.5158   -0.7797 C   0  0  0  0  0  0  0  0  0  0  0  0
   -1.8459   -2.3603   -2.7601 H   0  0  0  0  0  0  0  0  0  0  0  0
    0.3613   -1.2823   -3.2704 H   0  0  0  0  0  0  0  0  0  0  0  0
    1.4212    0.1505   -1.5511 H   0  0  0  0  0  0  0  0  0  0  0  0
    2.3861    1.4137    0.2873 H   0  0  0  0  0  0  0  0  0  0  0  0
    2.3091    2.5983    2.7513 H   0  0  0  0  0  0  0  0  0  0  0  0
   -1.1471    0.5248    2.3171 H   0  0  0  0  0  0  0  0  0  0  0  0
   -2.8610   -1.9715   -0.5159 H   0  0  0  0  0  0  0  0  0  0  0  0
  1  2  2  0
  2  3  1  0
  3  4  2  0
  4  5  1  0
  5  6  2  0
  6  7  1  0
  7  8  2  0
  8  9  1  0
  4 10  1  0
 10 11  2  0
 11  1  1  0
  9  5  1  0
  1 12  1  0
  2 13  1  0
  3 14  1  0
  6 15  1  0
  7 16  1  0
  9 17  1  0
 11 18  1  0
M  END
$$$$

     RDKit          3D

 18 19  0  0  0  0  0  0  0  0999 V2000
    2.5031   -1.6524    0.0321 C   0  0  0  0  0  0  0  0  0  0  0  0
    1.5219   -1.8330    1.0068 C   0  0  0  0  0  0  0  0  0  0  0  0
    0.3773   -1.0574    0.9749 C   0  0  0  0  0  0  0  0  0  0  0  0
    0.2481   -0.1031   -0.0494 C   0  0  0  0  0  0  0  0  0  0  0  0
   -0.9491    0.7485   -0.1414 C   0  0  0  0  0  0  0  0  0  0  0  0
   -2.1113    0.8111    0.6159 C   0  0  0  0  0  0  0  0  0  0  0  0
   -2.8656    1.8329   -0.0043 C   0  0  0  0  0  0  0  0  0  0  0  0
   -2.2150    2.3494   -1.0477 N   0  0  0  0  0  0  0  0  0  0  0  0
   -1.0621    1.6836   -1.1101 N   0  0  0  0  0  0  0  0  0  0  0  0
    1.1982    0.0836   -1.0010 N   0  0  0  0  0  0  0  0  0  0  0  0
    2.2875   -0.6753   -0.9508 C   0  0  0  0  0  0  0  0  0  0  0  0
    3.4051   -2.2365    0.0247 H   0  0  0  0  0  0  0  0  0  0  0  0
    1.6409   -2.5713    1.7783 H   0  0  0  0  0  0  0  0  0  0  0  0
   -0.4002   -1.1694    1.7095 H   0  0  0  0  0  0  0  0  0  0  0  0
   -2.3748    0.2242    1.4508 H   0  0  0  0  0  0  0  0  0  0  0  0
   -3.8352    2.2031    0.2703 H   0  0  0  0  0  0  0  0  0  0  0  0
   -0.3909    1.8658   -1.8351 H   0  0  0  0  0  0  0  0  0  0  0  0
    3.0222   -0.5037   -1.7235 H   0  0  0  0  0  0  0  0  0  0  0  0
  1  2  2  0
  2  3  1  0
  3  4  2  0
  4  5  1  0
  5  6  2  0
  6  7  1  0
  7  8  2  0
  8  9  1  0
  4 10  1  0
 10 11  2  0
 11  1  1  0
  9  5  1  0
  1 12  1  0
  2 13  1  0
  3 14  1  0
  6 15  1  0
  7 16  1  0
  9 17  1  0
 11 18  1  0
M  END
$$$$

     RDKit          3D

 18 19  0  0  0  0  0  0  0  0999 V2000
   -0.8307   -0.9742    2.7104 C   0  0  0  0  0  0  0  0  0  0  0  0
   -0.3065    0.3068    2.5429 C   0  0  0  0  0  0  0  0  0  0  0  0
    0.0538    0.7354    1.2788 C   0  0  0  0  0  0  0  0  0  0  0  0
   -0.1117   -0.1543    0.2022 C   0  0  0  0  0  0  0  0  0  0  0  0
    0.2749    0.2402   -1.1615 C   0  0  0  0  0  0  0  0  0  0  0  0
    0.8852    1.3887   -1.6448 C   0  0  0  0  0  0  0  0  0  0  0  0
    1.0074    1.1519   -3.0326 C   0  0  0  0  0  0  0  0  0  0  0  0
    0.5099   -0.0414   -3.3650 N   0  0  0  0  0  0  0  0  0  0  0  0
    0.0688   -0.5711   -2.2222 N   0  0  0  0  0  0  0  0  0  0  0  0
   -0.6278   -1.3985    0.3518 N   0  0  0  0  0  0  0  0  0  0  0  0
   -0.9688   -1.7874    1.5754 C   0  0  0  0  0  0  0  0  0  0  0  0
   -1.1246   -1.3415    3.6765 H   0  0  0  0  0  0  0  0  0  0  0  0
   -0.1819    0.9666    3.3821 H   0  0  0  0  0  0  0  0  0  0  0  0
    0.4550    1.7183    1.1107 H   0  0  0  0  0  0  0  0  0  0  0  0
    1.1839    2.2370   -1.0960 H   0  0  0  0  0  0  0  0  0  0  0  0
    1.4412    1.7921   -3.7776 H   0  0  0  0  0  0  0  0  0  0  0  0
   -0.3506   -1.4861   -2.1933 H   0  0  0  0  0  0  0  0  0  0  0  0
   -1.3776   -2.7824    1.6620 H   0  0  0  0  0  0  0  0  0  0  0  0
  1  2  2  0
  2  3  1  0
  3  4  2  0
  4  5  1  0
  5  6  2  0
  6  7  1  0
  7  8  2  0
  8  9  1  0
  4 10  1  0
 10 11  2  0
 11  1  1  0
  9  5  1  0
  1 12  1  0
  2 13  1  0
  3 14  1  0
  6 15  1  0
  7 16  1  0
  9 17  1  0
 11 18  1  0
M  END
$$$$
