
     RDKit          3D

 25 27  0  0  0  0  0  0  0  0999 V2000
   -0.7919   -3.0985   -1.5886 C   0  0  0  0  0  0  0  0  0  0  0  0
   -1.0474   -2.1139   -0.4934 C   0  0  0  0  0  0  0  0  0  0  0  0
   -2.0107   -2.3152    0.4536 C   0  0  0  0  0  0  0  0  0  0  0  0
   -2.2060   -1.3714    1.4796 C   0  0  0  0  0  0  0  0  0  0  0  0
   -1.4911   -0.2520    1.5939 N   0  0  0  0  0  0  0  0  0  0  0  0
   -0.5531   -0.0167    0.6737 C   0  0  0  0  0  0  0  0  0  0  0  0
   -0.2664   -0.9164   -0.4018 C   0  0  0  0  0  0  0  0  0  0  0  0
    0.7586   -0.6024   -1.3343 C   0  0  0  0  0  0  0  0  0  0  0  0
    1.4662    0.5480   -1.2445 C   0  0  0  0  0  0  0  0  0  0  0  0
    1.2155    1.4895   -0.2102 C   0  0  0  0  0  0  0  0  0  0  0  0
    1.9188    2.7090   -0.0953 C   0  0  0  0  0  0  0  0  0  0  0  0
    1.6218    3.5615    0.9363 C   0  0  0  0  0  0  0  0  0  0  0  0
    0.6244    3.1965    1.8553 C   0  0  0  0  0  0  0  0  0  0  0  0
   -0.0658    2.0459    1.7815 N   0  0  0  0  0  0  0  0  0  0  0  0
    0.2121    1.2121    0.7725 C   0  0  0  0  0  0  0  0  0  0  0  0
   -0.8726   -2.6315   -2.5721 H   0  0  0  0  0  0  0  0  0  0  0  0
    0.2045   -3.5304   -1.5063 H   0  0  0  0  0  0  0  0  0  0  0  0
   -1.5202   -3.9198   -1.5401 H   0  0  0  0  0  0  0  0  0  0  0  0
   -2.6233   -3.2078    0.4230 H   0  0  0  0  0  0  0  0  0  0  0  0
   -2.9675   -1.5344    2.2261 H   0  0  0  0  0  0  0  0  0  0  0  0
    0.9618   -1.3098   -2.1328 H   0  0  0  0  0  0  0  0  0  0  0  0
    2.2421    0.7666   -1.9693 H   0  0  0  0  0  0  0  0  0  0  0  0
    2.6718    2.9401   -0.8270 H   0  0  0  0  0  0  0  0  0  0  0  0
    2.1401    4.5005    1.0483 H   0  0  0  0  0  0  0  0  0  0  0  0
    0.3781    3.8505    2.6718 H   0  0  0  0  0  0  0  0  0  0  0  0
  1  2  1  0
  2  3  2  0
  3  4  1  0
  4  5  2  0
  5  6  1  0
  6  7  2  0
  7  8  1  0
  8  9  2  0
  9 10  1  0
 10 11  2  0
 11 12  1  0
 12 13  2  0
 13 14  1  0
 14 15  2  0
  7  2  1  0
 15 10  1  0
 15  6  1  0
  1 16  1  0
  1 17  1  0
  1 18  1  0
  3 19  1  0
  4 20  1  0
  8 21  1  0
  9 22  1  0
 11 23  1  0
 12 24  1  0
 13 25  1  0
M  END
$$$$

     RDKit          3D

 25 27  0  0  0  0  0  0  0  0999 V2000
    2.7731    2.2460   -0.2385 C   0  0  0  0  0  0  0  0  0  0  0  0
    2.0483    1.1680    0.5004 C   0  0  0  0  0  0  0  0  0  0  0  0
    2.5292    0.6443    1.6672 C   0  0  0  0  0  0  0  0  0  0  0  0
    1.8379   -0.3915    2.3189 C   0  0  0  0  0  0  0  0  0  0  0  0
    0.7042   -0.9133    1.8636 N   0  0  0  0  0  0  0  0  0  0  0  0
    0.1967   -0.4189    0.7331 C   0  0  0  0  0  0  0  0  0  0  0  0
    0.8200    0.6350   -0.0092 C   0  0  0  0  0  0  0  0  0  0  0  0
    0.2171    1.1106   -1.2052 C   0  0  0  0  0  0  0  0  0  0  0  0
   -0.9420    0.5863   -1.6638 C   0  0  0  0  0  0  0  0  0  0  0  0
   -1.6069   -0.4629   -0.9723 C   0  0  0  0  0  0  0  0  0  0  0  0
   -2.8214   -1.0273   -1.4191 C   0  0  0  0  0  0  0  0  0  0  0  0
   -3.4051   -2.0332   -0.6913 C   0  0  0  0  0  0  0  0  0  0  0  0
   -2.7715   -2.4787    0.4810 C   0  0  0  0  0  0  0  0  0  0  0  0
   -1.6161   -1.9675    0.9416 N   0  0  0  0  0  0  0  0  0  0  0  0
   -1.0463   -0.9806    0.2387 C   0  0  0  0  0  0  0  0  0  0  0  0
    3.0873    1.9040   -1.2254 H   0  0  0  0  0  0  0  0  0  0  0  0
    2.1472    3.1250   -0.3720 H   0  0  0  0  0  0  0  0  0  0  0  0
    3.6693    2.5523    0.3156 H   0  0  0  0  0  0  0  0  0  0  0  0
    3.4430    1.0333    2.0993 H   0  0  0  0  0  0  0  0  0  0  0  0
    2.2298   -0.8062    3.2354 H   0  0  0  0  0  0  0  0  0  0  0  0
    0.7092    1.9100   -1.7525 H   0  0  0  0  0  0  0  0  0  0  0  0
   -1.3912    0.9647   -2.5779 H   0  0  0  0  0  0  0  0  0  0  0  0
   -3.2650   -0.6524   -2.3257 H   0  0  0  0  0  0  0  0  0  0  0  0
   -4.3347   -2.4782   -1.0049 H   0  0  0  0  0  0  0  0  0  0  0  0
   -3.2122   -3.2688    1.0628 H   0  0  0  0  0  0  0  0  0  0  0  0
  1  2  1  0
  2  3  2  0
  3  4  1  0
  4  5  2  0
  5  6  1  0
  6  7  2  0
  7  8  1  0
  8  9  2  0
  9 10  1  0
 10 11  2  0
 11 12  1  0
 12 13  2  0
 13 14  1  0
 14 15  2  0
  7  2  1  0
 15 10  1  0
 15  6  1  0
  1 16  1  0
  1 17  1  0
  1 18  1  0
  3 19  1  0
  4 20  1  0
  8 21  1  0
  9 22  1  0
 11 23  1  0
 12 24  1  0
 13 25  1  0
M  END
$$$$

     RDKit          3D

 25 27  0  0  0  0  0  0  0  0999 V2000
    1.4473   -2.7443    1.7772 C   0  0  0  0  0  0  0  0  0  0  0  0
    1.4944   -1.3054    1.3745 C   0  0  0  0  0  0  0  0  0  0  0  0
    2.5051   -0.4761    1.7706 C   0  0  0  0  0  0  0  0  0  0  0  0
    2.5174    0.8691    1.3622 C   0  0  0  0  0  0  0  0  0  0  0  0
    1.5823    1.4130    0.5858 N   0  0  0  0  0  0  0  0  0  0  0  0
    0.5745    0.6357    0.1839 C   0  0  0  0  0  0  0  0  0  0  0  0
    0.4679   -0.7461    0.5448 C   0  0  0  0  0  0  0  0  0  0  0  0
   -0.6319   -1.5130    0.0783 C   0  0  0  0  0  0  0  0  0  0  0  0
   -1.5929   -0.9665   -0.7002 C   0  0  0  0  0  0  0  0  0  0  0  0
   -1.5387    0.3932   -1.1029 C   0  0  0  0  0  0  0  0  0  0  0  0
   -2.5151    0.9818   -1.9355 C   0  0  0  0  0  0  0  0  0  0  0  0
   -2.3943    2.3010   -2.2829 C   0  0  0  0  0  0  0  0  0  0  0  0
   -1.2970    3.0309   -1.7965 C   0  0  0  0  0  0  0  0  0  0  0  0
   -0.3483    2.5077   -1.0010 N   0  0  0  0  0  0  0  0  0  0  0  0
   -0.4539    1.2178   -0.6640 C   0  0  0  0  0  0  0  0  0  0  0  0
    2.2983   -2.9839    2.4288 H   0  0  0  0  0  0  0  0  0  0  0  0
    0.5279   -2.9742    2.3166 H   0  0  0  0  0  0  0  0  0  0  0  0
    1.4961   -3.4020    0.9094 H   0  0  0  0  0  0  0  0  0  0  0  0
    3.3029   -0.8509    2.3997 H   0  0  0  0  0  0  0  0  0  0  0  0
    3.3200    1.5190    1.6795 H   0  0  0  0  0  0  0  0  0  0  0  0
   -0.6922   -2.5589    0.3637 H   0  0  0  0  0  0  0  0  0  0  0  0
   -2.4306   -1.5676   -1.0386 H   0  0  0  0  0  0  0  0  0  0  0  0
   -3.3348    0.3746   -2.2786 H   0  0  0  0  0  0  0  0  0  0  0  0
   -3.1252    2.7793   -2.9147 H   0  0  0  0  0  0  0  0  0  0  0  0
   -1.1789    4.0655   -2.0602 H   0  0  0  0  0  0  0  0  0  0  0  0
  1  2  1  0
  2  3  2  0
  3  4  1  0
  4  5  2  0
  5  6  1  0
  6  7  2  0
  7  8  1  0
  8  9  2  0
  9 10  1  0
 10 11  2  0
 11 12  1  0
 12 13  2  0
 13 14  1  0
 14 15  2  0
  7  2  1  0
 15 10  1  0
 15  6  1  0
  1 16  1  0
  1 17  1  0
  1 18  1  0
  3 19  1  0
  4 20  1  0
  8 21  1  0
  9 22  1  0
 11 23  1  0
 12 24  1  0
 13 25  1  0
M  END
$$$$

     RDKit          3D

 25 27  0  0  0  0  0  0  0  0999 V2000
    1.5915   -0.9491    3.0611 C   0  0  0  0  0  0  0  0  0  0  0  0
    0.3581   -0.8634    2.2221 C   0  0  0  0  0  0  0  0  0  0  0  0
   -0.8458   -1.3388    2.6604 C   0  0  0  0  0  0  0  0  0  0  0  0
   -1.9820   -1.2644    1.8361 C   0  0  0  0  0  0  0  0  0  0  0  0
   -1.9698   -0.7441    0.6102 N   0  0  0  0  0  0  0  0  0  0  0  0
   -0.8107   -0.2657    0.1512 C   0  0  0  0  0  0  0  0  0  0  0  0
    0.4008   -0.2800    0.9143 C   0  0  0  0  0  0  0  0  0  0  0  0
    1.5878    0.2758    0.3650 C   0  0  0  0  0  0  0  0  0  0  0  0
    1.6045    0.8122   -0.8783 C   0  0  0  0  0  0  0  0  0  0  0  0
    0.4371    0.8414   -1.6873 C   0  0  0  0  0  0  0  0  0  0  0  0
    0.4180    1.3872   -2.9887 C   0  0  0  0  0  0  0  0  0  0  0  0
   -0.7521    1.3850   -3.7032 C   0  0  0  0  0  0  0  0  0  0  0  0
   -1.9038    0.8283   -3.1227 C   0  0  0  0  0  0  0  0  0  0  0  0
   -1.9291    0.3011   -1.8870 N   0  0  0  0  0  0  0  0  0  0  0  0
   -0.7901    0.3052   -1.1829 C   0  0  0  0  0  0  0  0  0  0  0  0
    2.0010    0.0398    3.2680 H   0  0  0  0  0  0  0  0  0  0  0  0
    2.3673   -1.5342    2.5667 H   0  0  0  0  0  0  0  0  0  0  0  0
    1.3666   -1.4264    4.0239 H   0  0  0  0  0  0  0  0  0  0  0  0
   -0.9284   -1.7766    3.6470 H   0  0  0  0  0  0  0  0  0  0  0  0
   -2.9293   -1.6455    2.1887 H   0  0  0  0  0  0  0  0  0  0  0  0
    2.4901    0.2607    0.9680 H   0  0  0  0  0  0  0  0  0  0  0  0
    2.5180    1.2395   -1.2772 H   0  0  0  0  0  0  0  0  0  0  0  0
    1.3268    1.7997   -3.3899 H   0  0  0  0  0  0  0  0  0  0  0  0
   -0.7959    1.7971   -4.6980 H   0  0  0  0  0  0  0  0  0  0  0  0
   -2.8307    0.8150   -3.6674 H   0  0  0  0  0  0  0  0  0  0  0  0
  1  2  1  0
  2  3  2  0
  3  4  1  0
  4  5  2  0
  5  6  1  0
  6  7  2  0
  7  8  1  0
  8  9  2  0
  9 10  1  0
 10 11  2  0
 11 12  1  0
 12 13  2  0
 13 14  1  0
 14 15  2  0
  7  2  1  0
 15 10  1  0
 15  6  1  0
  1 16  1  0
  1 17  1  0
  1 18  1  0
  3 19  1  0
  4 20  1  0
  8 21  1  0
  9 22  1  0
 11 23  1  0
 12 24  1  0
 13 25  1  0
M  END
$$$$

     RDKit          3D

 25 27  0  0  0  0  0  0  0  0999 V2000
    1.4631   -2.6931    1.8356 C   0  0  0  0  0  0  0  0  0  0  0  0
    1.4223   -1.2369    1.5003 C   0  0  0  0  0  0  0  0  0  0  0  0
    2.2806   -0.3390    2.0684 C   0  0  0  0  0  0  0  0  0  0  0  0
    2.2090    1.0257    1.7331 C   0  0  0  0  0  0  0  0  0  0  0  0
    1.3284    1.5222    0.8654 N   0  0  0  0  0  0  0  0  0  0  0  0
    0.4761    0.6706    0.2894 C   0  0  0  0  0  0  0  0  0  0  0  0
    0.4683   -0.7352    0.5575 C   0  0  0  0  0  0  0  0  0  0  0  0
   -0.4613   -1.5793   -0.1077 C   0  0  0  0  0  0  0  0  0  0  0  0
   -1.3460   -1.0864   -1.0040 C   0  0  0  0  0  0  0  0  0  0  0  0
   -1.3951    0.3010   -1.3053 C   0  0  0  0  0  0  0  0  0  0  0  0
   -2.3132    0.8545   -2.2244 C   0  0  0  0  0  0  0  0  0  0  0  0
   -2.3020    2.2070   -2.4549 C   0  0  0  0  0  0  0  0  0  0  0  0
   -1.3763    3.0065   -1.7643 C   0  0  0  0  0  0  0  0  0  0  0  0
   -0.4821    2.5193   -0.8866 N   0  0  0  0  0  0  0  0  0  0  0  0
   -0.4852    1.2001   -0.6601 C   0  0  0  0  0  0  0  0  0  0  0  0
    0.5167   -3.0318    2.2576 H   0  0  0  0  0  0  0  0  0  0  0  0
    2.2561   -2.8956    2.5685 H   0  0  0  0  0  0  0  0  0  0  0  0
    1.6669   -3.2952    0.9518 H   0  0  0  0  0  0  0  0  0  0  0  0
    3.0211   -0.6753    2.7827 H   0  0  0  0  0  0  0  0  0  0  0  0
    2.8878    1.7294    2.1903 H   0  0  0  0  0  0  0  0  0  0  0  0
   -0.4480   -2.6403    0.1156 H   0  0  0  0  0  0  0  0  0  0  0  0
   -2.0401   -1.7517   -1.5062 H   0  0  0  0  0  0  0  0  0  0  0  0
   -3.0053    0.1976   -2.7225 H   0  0  0  0  0  0  0  0  0  0  0  0
   -2.9909    2.6575   -3.1515 H   0  0  0  0  0  0  0  0  0  0  0  0
   -1.3511    4.0683   -1.9286 H   0  0  0  0  0  0  0  0  0  0  0  0
  1  2  1  0
  2  3  2  0
  3  4  1  0
  4  5  2  0
  5  6  1  0
  6  7  2  0
  7  8  1  0
  8  9  2  0
  9 10  1  0
 10 11  2  0
 11 12  1  0
 12 13  2  0
 13 14  1  0
 14 15  2  0
  7  2  1  0
 15 10  1  0
 15  6  1  0
  1 16  1  0
  1 17  1  0
  1 18  1  0
  3 19  1  0
  4 20  1  0
  8 21  1  0
  9 22  1  0
 11 23  1  0
 12 24  1  0
 13 25  1  0
M  END
$$$$

     RDKit          3D

 25 27  0  0  0  0  0  0  0  0999 V2000
    2.4335    2.6103   -0.2488 C   0  0  0  0  0  0  0  0  0  0  0  0
    1.0533    2.1630    0.1107 C   0  0  0  0  0  0  0  0  0  0  0  0
    0.1114    3.0371    0.5769 C   0  0  0  0  0  0  0  0  0  0  0  0
   -1.1786    2.5860    0.9061 C   0  0  0  0  0  0  0  0  0  0  0  0
   -1.5641    1.3187    0.7870 N   0  0  0  0  0  0  0  0  0  0  0  0
   -0.6707    0.4384    0.3278 C   0  0  0  0  0  0  0  0  0  0  0  0
    0.6715    0.7890   -0.0255 C   0  0  0  0  0  0  0  0  0  0  0  0
    1.5640   -0.2117   -0.4975 C   0  0  0  0  0  0  0  0  0  0  0  0
    1.1683   -1.4983   -0.6404 C   0  0  0  0  0  0  0  0  0  0  0  0
   -0.1552   -1.9033   -0.3224 C   0  0  0  0  0  0  0  0  0  0  0  0
   -0.6073   -3.2324   -0.4656 C   0  0  0  0  0  0  0  0  0  0  0  0
   -1.9072   -3.5386   -0.1514 C   0  0  0  0  0  0  0  0  0  0  0  0
   -2.7536   -2.5184    0.3155 C   0  0  0  0  0  0  0  0  0  0  0  0
   -2.3594   -1.2450    0.4771 N   0  0  0  0  0  0  0  0  0  0  0  0
   -1.0951   -0.9383    0.1628 C   0  0  0  0  0  0  0  0  0  0  0  0
    3.1826    2.1201    0.3743 H   0  0  0  0  0  0  0  0  0  0  0  0
    2.6671    2.3887   -1.2870 H   0  0  0  0  0  0  0  0  0  0  0  0
    2.5318    3.6954   -0.1091 H   0  0  0  0  0  0  0  0  0  0  0  0
    0.3547    4.0853    0.6961 H   0  0  0  0  0  0  0  0  0  0  0  0
   -1.9139    3.2836    1.2802 H   0  0  0  0  0  0  0  0  0  0  0  0
    2.5789    0.0773   -0.7530 H   0  0  0  0  0  0  0  0  0  0  0  0
    1.8626   -2.2455   -1.0114 H   0  0  0  0  0  0  0  0  0  0  0  0
    0.0829   -3.9791   -0.8188 H   0  0  0  0  0  0  0  0  0  0  0  0
   -2.2819   -4.5445   -0.2516 H   0  0  0  0  0  0  0  0  0  0  0  0
   -3.7757   -2.7378    0.5681 H   0  0  0  0  0  0  0  0  0  0  0  0
  1  2  1  0
  2  3  2  0
  3  4  1  0
  4  5  2  0
  5  6  1  0
  6  7  2  0
  7  8  1  0
  8  9  2  0
  9 10  1  0
 10 11  2  0
 11 12  1  0
 12 13  2  0
 13 14  1  0
 14 15  2  0
  7  2  1  0
 15 10  1  0
 15  6  1  0
  1 16  1  0
  1 17  1  0
  1 18  1  0
  3 19  1  0
  4 20  1  0
  8 21  1  0
  9 22  1  0
 11 23  1  0
 12 24  1  0
 13 25  1  0
M  END
$$$$

     RDKit          3D

 25 27  0  0  0  0  0  0  0  0999 V2000
    1.9261   -2.9911    0.3252 C   0  0  0  0  0  0  0  0  0  0  0  0
    1.4660   -1.6895    0.8961 C   0  0  0  0  0  0  0  0  0  0  0  0
    1.8780   -1.2506    2.1238 C   0  0  0  0  0  0  0  0  0  0  0  0
    1.4313   -0.0134    2.6216 C   0  0  0  0  0  0  0  0  0  0  0  0
    0.6010    0.7843    1.9540 N   0  0  0  0  0  0  0  0  0  0  0  0
    0.1767    0.3856    0.7535 C   0  0  0  0  0  0  0  0  0  0  0  0
    0.5754   -0.8494    0.1525 C   0  0  0  0  0  0  0  0  0  0  0  0
    0.0897   -1.1989   -1.1371 C   0  0  0  0  0  0  0  0  0  0  0  0
   -0.7517   -0.3830   -1.8180 C   0  0  0  0  0  0  0  0  0  0  0  0
   -1.1852    0.8546   -1.2705 C   0  0  0  0  0  0  0  0  0  0  0  0
   -2.0557    1.7334   -1.9517 C   0  0  0  0  0  0  0  0  0  0  0  0
   -2.4266    2.9095   -1.3503 C   0  0  0  0  0  0  0  0  0  0  0  0
   -1.9371    3.2038   -0.0656 C   0  0  0  0  0  0  0  0  0  0  0  0
   -1.1057    2.3952    0.6143 N   0  0  0  0  0  0  0  0  0  0  0  0
   -0.7286    1.2535    0.0260 C   0  0  0  0  0  0  0  0  0  0  0  0
    2.6181   -3.4870    1.0197 H   0  0  0  0  0  0  0  0  0  0  0  0
    2.4447   -2.8461   -0.6181 H   0  0  0  0  0  0  0  0  0  0  0  0
    1.0864   -3.6633    0.1458 H   0  0  0  0  0  0  0  0  0  0  0  0
    2.5538   -1.8536    2.7183 H   0  0  0  0  0  0  0  0  0  0  0  0
    1.7620    0.3348    3.5875 H   0  0  0  0  0  0  0  0  0  0  0  0
    0.4129   -2.1378   -1.5744 H   0  0  0  0  0  0  0  0  0  0  0  0
   -1.1121   -0.6689   -2.8002 H   0  0  0  0  0  0  0  0  0  0  0  0
   -2.4112    1.4587   -2.9294 H   0  0  0  0  0  0  0  0  0  0  0  0
   -3.0861    3.6028   -1.8469 H   0  0  0  0  0  0  0  0  0  0  0  0
   -2.2223    4.1165    0.4239 H   0  0  0  0  0  0  0  0  0  0  0  0
  1  2  1  0
  2  3  2  0
  3  4  1  0
  4  5  2  0
  5  6  1  0
  6  7  2  0
  7  8  1  0
  8  9  2  0
  9 10  1  0
 10 11  2  0
 11 12  1  0
 12 13  2  0
 13 14  1  0
 14 15  2  0
  7  2  1  0
 15 10  1  0
 15  6  1  0
  1 16  1  0
  1 17  1  0
  1 18  1  0
  3 19  1  0
  4 20  1  0
  8 21  1  0
  9 22  1  0
 11 23  1  0
 12 24  1  0
 13 25  1  0
M  END
$$$$

     RDKit          3D

 25 27  0  0  0  0  0  0  0  0999 V2000
    1.6062   -2.3727   -2.1314 C   0  0  0  0  0  0  0  0  0  0  0  0
    1.6953   -1.1636   -1.2591 C   0  0  0  0  0  0  0  0  0  0  0  0
    2.8686   -0.4869   -1.0743 C   0  0  0  0  0  0  0  0  0  0  0  0
    2.9086    0.6527   -0.2493 C   0  0  0  0  0  0  0  0  0  0  0  0
    1.8387    1.1400    0.3751 N   0  0  0  0  0  0  0  0  0  0  0  0
    0.6770    0.5002    0.2213 C   0  0  0  0  0  0  0  0  0  0  0  0
    0.5308   -0.6728   -0.5849 C   0  0  0  0  0  0  0  0  0  0  0  0
   -0.7393   -1.3041   -0.6922 C   0  0  0  0  0  0  0  0  0  0  0  0
   -1.8291   -0.8055   -0.0621 C   0  0  0  0  0  0  0  0  0  0  0  0
   -1.7521    0.3696    0.7301 C   0  0  0  0  0  0  0  0  0  0  0  0
   -2.8745    0.9344    1.3730 C   0  0  0  0  0  0  0  0  0  0  0  0
   -2.7200    2.0743    2.1185 C   0  0  0  0  0  0  0  0  0  0  0  0
   -1.4414    2.6447    2.2296 C   0  0  0  0  0  0  0  0  0  0  0  0
   -0.3474    2.1405    1.6316 N   0  0  0  0  0  0  0  0  0  0  0  0
   -0.4957    1.0362    0.8893 C   0  0  0  0  0  0  0  0  0  0  0  0
    2.5885   -2.6064   -2.5600 H   0  0  0  0  0  0  0  0  0  0  0  0
    1.2665   -3.2422   -1.5670 H   0  0  0  0  0  0  0  0  0  0  0  0
    0.9097   -2.2170   -2.9526 H   0  0  0  0  0  0  0  0  0  0  0  0
    3.7724   -0.8230   -1.5658 H   0  0  0  0  0  0  0  0  0  0  0  0
    3.8392    1.1795   -0.1023 H   0  0  0  0  0  0  0  0  0  0  0  0
   -0.8232   -2.2002   -1.2955 H   0  0  0  0  0  0  0  0  0  0  0  0
   -2.7902   -1.3006   -0.1581 H   0  0  0  0  0  0  0  0  0  0  0  0
   -3.8302    0.4532    1.2576 H   0  0  0  0  0  0  0  0  0  0  0  0
   -3.5588    2.5326    2.6163 H   0  0  0  0  0  0  0  0  0  0  0  0
   -1.2995    3.5372    2.8122 H   0  0  0  0  0  0  0  0  0  0  0  0
  1  2  1  0
  2  3  2  0
  3  4  1  0
  4  5  2  0
  5  6  1  0
  6  7  2  0
  7  8  1  0
  8  9  2  0
  9 10  1  0
 10 11  2  0
 11 12  1  0
 12 13  2  0
 13 14  1  0
 14 15  2  0
  7  2  1  0
 15 10  1  0
 15  6  1  0
  1 16  1  0
  1 17  1  0
  1 18  1  0
  3 19  1  0
  4 20  1  0
  8 21  1  0
  9 22  1  0
 11 23  1  0
 12 24  1  0
 13 25  1  0
M  END
$$$$

     RDKit          3D

 25 27  0  0  0  0  0  0  0  0999 V2000
   -3.3890    0.4587    1.0509 C   0  0  0  0  0  0  0  0  0  0  0  0
   -1.9630    0.9067    1.0641 C   0  0  0  0  0  0  0  0  0  0  0  0
   -1.5606    2.0113    1.7636 C   0  0  0  0  0  0  0  0  0  0  0  0
   -0.2109    2.4076    1.7492 C   0  0  0  0  0  0  0  0  0  0  0  0
    0.7369    1.7512    1.0865 N   0  0  0  0  0  0  0  0  0  0  0  0
    0.3807    0.6693    0.3914 C   0  0  0  0  0  0  0  0  0  0  0  0
   -0.9641    0.1841    0.3336 C   0  0  0  0  0  0  0  0  0  0  0  0
   -1.2668   -0.9711   -0.4364 C   0  0  0  0  0  0  0  0  0  0  0  0
   -0.3010   -1.6369   -1.1123 C   0  0  0  0  0  0  0  0  0  0  0  0
    1.0539   -1.2093   -1.0842 C   0  0  0  0  0  0  0  0  0  0  0  0
    2.0882   -1.8830   -1.7697 C   0  0  0  0  0  0  0  0  0  0  0  0
    3.3709   -1.4027   -1.6904 C   0  0  0  0  0  0  0  0  0  0  0  0
    3.6202   -0.2467   -0.9320 C   0  0  0  0  0  0  0  0  0  0  0  0
    2.6659    0.4216   -0.2666 N   0  0  0  0  0  0  0  0  0  0  0  0
    1.4138   -0.0472   -0.3316 C   0  0  0  0  0  0  0  0  0  0  0  0
   -4.0061    1.1304    1.6612 H   0  0  0  0  0  0  0  0  0  0  0  0
   -3.4932   -0.5479    1.4498 H   0  0  0  0  0  0  0  0  0  0  0  0
   -3.7934    0.4586    0.0376 H   0  0  0  0  0  0  0  0  0  0  0  0
   -2.2814    2.5831    2.3354 H   0  0  0  0  0  0  0  0  0  0  0  0
    0.1016    3.2869    2.2935 H   0  0  0  0  0  0  0  0  0  0  0  0
   -2.2995   -1.3012   -0.4868 H   0  0  0  0  0  0  0  0  0  0  0  0
   -0.5507   -2.5155   -1.6980 H   0  0  0  0  0  0  0  0  0  0  0  0
    1.8449   -2.7587   -2.3463 H   0  0  0  0  0  0  0  0  0  0  0  0
    4.1824   -1.8944   -2.2012 H   0  0  0  0  0  0  0  0  0  0  0  0
    4.6200    0.1451   -0.8614 H   0  0  0  0  0  0  0  0  0  0  0  0
  1  2  1  0
  2  3  2  0
  3  4  1  0
  4  5  2  0
  5  6  1  0
  6  7  2  0
  7  8  1  0
  8  9  2  0
  9 10  1  0
 10 11  2  0
 11 12  1  0
 12 13  2  0
 13 14  1  0
 14 15  2  0
  7  2  1  0
 15 10  1  0
 15  6  1  0
  1 16  1  0
  1 17  1  0
  1 18  1  0
  3 19  1  0
  4 20  1  0
  8 21  1  0
  9 22  1  0
 11 23  1  0
 12 24  1  0
 13 25  1  0
M  END
$$$$

     RDKit          3D

 25 27  0  0  0  0  0  0  0  0999 V2000
   -3.2058    1.3585    0.8202 C   0  0  0  0  0  0  0  0  0  0  0  0
   -1.9571    1.4096    0.0000 C   0  0  0  0  0  0  0  0  0  0  0  0
   -1.7648    2.3581   -0.9642 C   0  0  0  0  0  0  0  0  0  0  0  0
   -0.5730    2.3782   -1.7124 C   0  0  0  0  0  0  0  0  0  0  0  0
    0.4147    1.5014   -1.5430 N   0  0  0  0  0  0  0  0  0  0  0  0
    0.2551    0.5531   -0.6179 C   0  0  0  0  0  0  0  0  0  0  0  0
   -0.9130    0.4487    0.2024 C   0  0  0  0  0  0  0  0  0  0  0  0
   -1.0049   -0.5889    1.1688 C   0  0  0  0  0  0  0  0  0  0  0  0
   -0.0123   -1.4967    1.3272 C   0  0  0  0  0  0  0  0  0  0  0  0
    1.1662   -1.4487    0.5360 C   0  0  0  0  0  0  0  0  0  0  0  0
    2.2159   -2.3837    0.6679 C   0  0  0  0  0  0  0  0  0  0  0  0
    3.3257   -2.2673   -0.1306 C   0  0  0  0  0  0  0  0  0  0  0  0
    3.3848   -1.2159   -1.0605 C   0  0  0  0  0  0  0  0  0  0  0  0
    2.4071   -0.3077   -1.2164 N   0  0  0  0  0  0  0  0  0  0  0  0
    1.3216   -0.4157   -0.4415 C   0  0  0  0  0  0  0  0  0  0  0  0
   -3.8846    2.1722    0.5324 H   0  0  0  0  0  0  0  0  0  0  0  0
   -2.9881    1.4610    1.8826 H   0  0  0  0  0  0  0  0  0  0  0  0
   -3.7337    0.4150    0.6784 H   0  0  0  0  0  0  0  0  0  0  0  0
   -2.5287    3.1023   -1.1539 H   0  0  0  0  0  0  0  0  0  0  0  0
   -0.4242    3.1350   -2.4665 H   0  0  0  0  0  0  0  0  0  0  0  0
   -1.9003   -0.6421    1.7788 H   0  0  0  0  0  0  0  0  0  0  0  0
   -0.1090   -2.2885    2.0621 H   0  0  0  0  0  0  0  0  0  0  0  0
    2.1211   -3.1692    1.3954 H   0  0  0  0  0  0  0  0  0  0  0  0
    4.1420   -2.9649   -0.0509 H   0  0  0  0  0  0  0  0  0  0  0  0
    4.2452   -1.1040   -1.6945 H   0  0  0  0  0  0  0  0  0  0  0  0
  1  2  1  0
  2  3  2  0
  3  4  1  0
  4  5  2  0
  5  6  1  0
  6  7  2  0
  7  8  1  0
  8  9  2  0
  9 10  1  0
 10 11  2  0
 11 12  1  0
 12 13  2  0
 13 14  1  0
 14 15  2  0
  7  2  1  0
 15 10  1  0
 15  6  1  0
  1 16  1  0
  1 17  1  0
  1 18  1  0
  3 19  1  0
  4 20  1  0
  8 21  1  0
  9 22  1  0
 11 23  1  0
 12 24  1  0
 13 25  1  0
M  END
$$$$

     RDKit          3D

 25 27  0  0  0  0  0  0  0  0999 V2000
   -1.6585   -1.6616   -2.6924 C   0  0  0  0  0  0  0  0  0  0  0  0
   -1.7329   -0.8391   -1.4465 C   0  0  0  0  0  0  0  0  0  0  0  0
   -2.9252   -0.4174   -0.9283 C   0  0  0  0  0  0  0  0  0  0  0  0
   -2.9553    0.3537    0.2481 C   0  0  0  0  0  0  0  0  0  0  0  0
   -1.8616    0.7108    0.9191 N   0  0  0  0  0  0  0  0  0  0  0  0
   -0.6807    0.3232    0.4351 C   0  0  0  0  0  0  0  0  0  0  0  0
   -0.5383   -0.4670   -0.7496 C   0  0  0  0  0  0  0  0  0  0  0  0
    0.7546   -0.8591   -1.1931 C   0  0  0  0  0  0  0  0  0  0  0  0
    1.8691   -0.4880   -0.5220 C   0  0  0  0  0  0  0  0  0  0  0  0
    1.7936    0.3079    0.6525 C   0  0  0  0  0  0  0  0  0  0  0  0
    2.9342    0.7176    1.3762 C   0  0  0  0  0  0  0  0  0  0  0  0
    2.7760    1.4913    2.4981 C   0  0  0  0  0  0  0  0  0  0  0  0
    1.4782    1.8440    2.9058 C   0  0  0  0  0  0  0  0  0  0  0  0
    0.3673    1.4684    2.2510 N   0  0  0  0  0  0  0  0  0  0  0  0
    0.5166    0.7200    1.1504 C   0  0  0  0  0  0  0  0  0  0  0  0
   -1.0759   -1.1586   -3.4651 H   0  0  0  0  0  0  0  0  0  0  0  0
   -1.1894   -2.6262   -2.4967 H   0  0  0  0  0  0  0  0  0  0  0  0
   -2.6649   -1.8467   -3.0878 H   0  0  0  0  0  0  0  0  0  0  0  0
   -3.8539   -0.6771   -1.4235 H   0  0  0  0  0  0  0  0  0  0  0  0
   -3.8996    0.6862    0.6522 H   0  0  0  0  0  0  0  0  0  0  0  0
    0.8307   -1.4698   -2.0874 H   0  0  0  0  0  0  0  0  0  0  0  0
    2.8493   -0.7977   -0.8723 H   0  0  0  0  0  0  0  0  0  0  0  0
    3.9053    0.4110    1.0258 H   0  0  0  0  0  0  0  0  0  0  0  0
    3.6286    1.8284    3.0650 H   0  0  0  0  0  0  0  0  0  0  0  0
    1.3329    2.4459    3.7854 H   0  0  0  0  0  0  0  0  0  0  0  0
  1  2  1  0
  2  3  2  0
  3  4  1  0
  4  5  2  0
  5  6  1  0
  6  7  2  0
  7  8  1  0
  8  9  2  0
  9 10  1  0
 10 11  2  0
 11 12  1  0
 12 13  2  0
 13 14  1  0
 14 15  2  0
  7  2  1  0
 15 10  1  0
 15  6  1  0
  1 16  1  0
  1 17  1  0
  1 18  1  0
  3 19  1  0
  4 20  1  0
  8 21  1  0
  9 22  1  0
 11 23  1  0
 12 24  1  0
 13 25  1  0
M  END
$$$$

     RDKit          3D

 25 27  0  0  0  0  0  0  0  0999 V2000
    1.1401    1.1487   -3.1879 C   0  0  0  0  0  0  0  0  0  0  0  0
    0.9914    0.0356   -2.2004 C   0  0  0  0  0  0  0  0  0  0  0  0
    1.4384   -1.2285   -2.4586 C   0  0  0  0  0  0  0  0  0  0  0  0
    1.2728   -2.2494   -1.5054 C   0  0  0  0  0  0  0  0  0  0  0  0
    0.6827   -2.0629   -0.3270 N   0  0  0  0  0  0  0  0  0  0  0  0
    0.2318   -0.8424   -0.0378 C   0  0  0  0  0  0  0  0  0  0  0  0
    0.3591    0.2672   -0.9348 C   0  0  0  0  0  0  0  0  0  0  0  0
   -0.1368    1.5429   -0.5543 C   0  0  0  0  0  0  0  0  0  0  0  0
   -0.7274    1.7390    0.6470 C   0  0  0  0  0  0  0  0  0  0  0  0
   -0.8870    0.6788    1.5769 C   0  0  0  0  0  0  0  0  0  0  0  0
   -1.5032    0.8535    2.8358 C   0  0  0  0  0  0  0  0  0  0  0  0
   -1.6192   -0.2176    3.6824 C   0  0  0  0  0  0  0  0  0  0  0  0
   -1.1226   -1.4649    3.2687 C   0  0  0  0  0  0  0  0  0  0  0  0
   -0.5312   -1.6707    2.0785 N   0  0  0  0  0  0  0  0  0  0  0  0
   -0.4068   -0.6287    1.2496 C   0  0  0  0  0  0  0  0  0  0  0  0
    0.1697    1.5532   -3.4764 H   0  0  0  0  0  0  0  0  0  0  0  0
    1.7320    1.9633   -2.7759 H   0  0  0  0  0  0  0  0  0  0  0  0
    1.6411    0.7905   -4.0988 H   0  0  0  0  0  0  0  0  0  0  0  0
    1.9271   -1.4497   -3.3986 H   0  0  0  0  0  0  0  0  0  0  0  0
    1.6294   -3.2458   -1.7164 H   0  0  0  0  0  0  0  0  0  0  0  0
   -0.0337    2.3682   -1.2508 H   0  0  0  0  0  0  0  0  0  0  0  0
   -1.0949    2.7221    0.9180 H   0  0  0  0  0  0  0  0  0  0  0  0
   -1.8698    1.8299    3.0992 H   0  0  0  0  0  0  0  0  0  0  0  0
   -2.0839   -0.1152    4.6492 H   0  0  0  0  0  0  0  0  0  0  0  0
   -1.1993   -2.3169    3.9177 H   0  0  0  0  0  0  0  0  0  0  0  0
  1  2  1  0
  2  3  2  0
  3  4  1  0
  4  5  2  0
  5  6  1  0
  6  7  2  0
  7  8  1  0
  8  9  2  0
  9 10  1  0
 10 11  2  0
 11 12  1  0
 12 13  2  0
 13 14  1  0
 14 15  2  0
  7  2  1  0
 15 10  1  0
 15  6  1  0
  1 16  1  0
  1 17  1  0
  1 18  1  0
  3 19  1  0
  4 20  1  0
  8 21  1  0
  9 22  1  0
 11 23  1  0
 12 24  1  0
 13 25  1  0
M  END
$$$$
