
     RDKit          3D

 26 27  0  0  0  0  0  0  0  0999 V2000
    0.2607    2.1351   -3.6150 C   0  0  0  0  0  0  0  0  0  0  0  0
   -0.4051    1.7834   -2.3274 C   0  0  0  0  0  0  0  0  0  0  0  0
   -1.5865    2.3993   -1.9228 C   0  0  0  0  0  0  0  0  0  0  0  0
   -2.1566    2.0463   -0.7096 C   0  0  0  0  0  0  0  0  0  0  0  0
   -1.5406    1.0850    0.0723 C   0  0  0  0  0  0  0  0  0  0  0  0
   -0.3609    0.5123   -0.4035 C   0  0  0  0  0  0  0  0  0  0  0  0
    0.3451   -0.5185    0.3985 C   0  0  0  0  0  0  0  0  0  0  0  0
    1.5429   -1.0567   -0.0617 C   0  0  0  0  0  0  0  0  0  0  0  0
    2.1670   -2.0115    0.7174 C   0  0  0  0  0  0  0  0  0  0  0  0
    1.5867   -2.3896    1.9228 C   0  0  0  0  0  0  0  0  0  0  0  0
    0.3842   -1.8029    2.3141 C   0  0  0  0  0  0  0  0  0  0  0  0
   -0.2685   -2.1670    3.6047 C   0  0  0  0  0  0  0  0  0  0  0  0
   -0.2275   -0.8810    1.5552 N   0  0  0  0  0  0  0  0  0  0  0  0
    0.1929    0.8471   -1.5733 N   0  0  0  0  0  0  0  0  0  0  0  0
    1.2361    2.5911   -3.4317 H   0  0  0  0  0  0  0  0  0  0  0  0
    0.4242    1.2474   -4.2226 H   0  0  0  0  0  0  0  0  0  0  0  0
   -0.3425    2.8438   -4.1959 H   0  0  0  0  0  0  0  0  0  0  0  0
   -2.0465    3.1476   -2.5613 H   0  0  0  0  0  0  0  0  0  0  0  0
   -3.0711    2.5143   -0.3651 H   0  0  0  0  0  0  0  0  0  0  0  0
   -1.9504    0.7826    1.0218 H   0  0  0  0  0  0  0  0  0  0  0  0
    1.9575   -0.7289   -1.0012 H   0  0  0  0  0  0  0  0  0  0  0  0
    3.0986   -2.4550    0.3889 H   0  0  0  0  0  0  0  0  0  0  0  0
    2.0495   -3.1335    2.5654 H   0  0  0  0  0  0  0  0  0  0  0  0
   -1.2619   -1.7277    3.6891 H   0  0  0  0  0  0  0  0  0  0  0  0
    0.3348   -1.8124    4.4465 H   0  0  0  0  0  0  0  0  0  0  0  0
   -0.3621   -3.2509    3.6944 H   0  0  0  0  0  0  0  0  0  0  0  0
  1  2  1  0
  2  3  2  0
  3  4  1  0
  4  5  2  0
  5  6  1  0
  6  7  1  0
  7  8  2  0
  8  9  1  0
  9 10  2  0
 10 11  1  0
 11 12  1  0
 11 13  2  0
  6 14  2  0
 14  2  1  0
 13  7  1  0
  1 15  1  0
  1 16  1  0
  1 17  1  0
  3 18  1  0
  4 19  1  0
  5 20  1  0
  8 21  1  0
  9 22  1  0
 10 23  1  0
 12 24  1  0
 12 25  1  0
 12 26  1  0
M  END
$$$$

     RDKit          3D

 26 27  0  0  0  0  0  0  0  0999 V2000
    1.0907    0.3778   -4.0489 C   0  0  0  0  0  0  0  0  0  0  0  0
    1.3394   -0.0501   -2.6403 C   0  0  0  0  0  0  0  0  0  0  0  0
    2.5091   -0.7103   -2.2718 C   0  0  0  0  0  0  0  0  0  0  0  0
    2.6785   -1.1092   -0.9543 C   0  0  0  0  0  0  0  0  0  0  0  0
    1.6828   -0.8381   -0.0333 C   0  0  0  0  0  0  0  0  0  0  0  0
    0.5418   -0.1714   -0.4799 C   0  0  0  0  0  0  0  0  0  0  0  0
   -0.5546    0.1404    0.4685 C   0  0  0  0  0  0  0  0  0  0  0  0
   -1.7228    0.7430    0.0098 C   0  0  0  0  0  0  0  0  0  0  0  0
   -2.7082    1.0288    0.9341 C   0  0  0  0  0  0  0  0  0  0  0  0
   -2.5013    0.7051    2.2703 C   0  0  0  0  0  0  0  0  0  0  0  0
   -1.3054    0.0990    2.6502 C   0  0  0  0  0  0  0  0  0  0  0  0
   -1.0521   -0.2840    4.0698 C   0  0  0  0  0  0  0  0  0  0  0  0
   -0.3481   -0.1821    1.7532 N   0  0  0  0  0  0  0  0  0  0  0  0
    0.3708    0.2131   -1.7491 N   0  0  0  0  0  0  0  0  0  0  0  0
    0.3000   -0.2253   -4.4956 H   0  0  0  0  0  0  0  0  0  0  0  0
    0.7728    1.4181   -4.0897 H   0  0  0  0  0  0  0  0  0  0  0  0
    1.9927    0.2696   -4.6640 H   0  0  0  0  0  0  0  0  0  0  0  0
    3.2713   -0.9067   -3.0192 H   0  0  0  0  0  0  0  0  0  0  0  0
    3.5755   -1.6292   -0.6401 H   0  0  0  0  0  0  0  0  0  0  0  0
    1.7758   -1.1249    1.0018 H   0  0  0  0  0  0  0  0  0  0  0  0
   -1.8380    0.9737   -1.0382 H   0  0  0  0  0  0  0  0  0  0  0  0
   -3.6320    1.4989    0.6195 H   0  0  0  0  0  0  0  0  0  0  0  0
   -3.2518    0.9236    3.0250 H   0  0  0  0  0  0  0  0  0  0  0  0
   -1.6369   -1.1695    4.3321 H   0  0  0  0  0  0  0  0  0  0  0  0
   -0.0008   -0.5133    4.2450 H   0  0  0  0  0  0  0  0  0  0  0  0
   -1.3493    0.5231    4.7450 H   0  0  0  0  0  0  0  0  0  0  0  0
  1  2  1  0
  2  3  2  0
  3  4  1  0
  4  5  2  0
  5  6  1  0
  6  7  1  0
  7  8  2  0
  8  9  1  0
  9 10  2  0
 10 11  1  0
 11 12  1  0
 11 13  2  0
  6 14  2  0
 14  2  1  0
 13  7  1  0
  1 15  1  0
  1 16  1  0
  1 17  1  0
  3 18  1  0
  4 19  1  0
  5 20  1  0
  8 21  1  0
  9 22  1  0
 10 23  1  0
 12 24  1  0
 12 25  1  0
 12 26  1  0
M  END
$$$$

     RDKit          3D

 26 27  0  0  0  0  0  0  0  0999 V2000
    0.5482   -3.4667    2.3140 C   0  0  0  0  0  0  0  0  0  0  0  0
    1.0301   -2.2038    1.6818 C   0  0  0  0  0  0  0  0  0  0  0  0
    2.3477   -1.7726    1.8151 C   0  0  0  0  0  0  0  0  0  0  0  0
    2.7438   -0.5942    1.1995 C   0  0  0  0  0  0  0  0  0  0  0  0
    1.8192    0.1293    0.4657 C   0  0  0  0  0  0  0  0  0  0  0  0
    0.5186   -0.3666    0.3838 C   0  0  0  0  0  0  0  0  0  0  0  0
   -0.5125    0.3705   -0.3851 C   0  0  0  0  0  0  0  0  0  0  0  0
   -1.8212   -0.1047   -0.4233 C   0  0  0  0  0  0  0  0  0  0  0  0
   -2.7488    0.6153   -1.1461 C   0  0  0  0  0  0  0  0  0  0  0  0
   -2.3498    1.7758   -1.8023 C   0  0  0  0  0  0  0  0  0  0  0  0
   -1.0207    2.1884   -1.7132 C   0  0  0  0  0  0  0  0  0  0  0  0
   -0.5420    3.4428   -2.3639 C   0  0  0  0  0  0  0  0  0  0  0  0
   -0.1194    1.4857   -1.0140 N   0  0  0  0  0  0  0  0  0  0  0  0
    0.1304   -1.5014    0.9753 N   0  0  0  0  0  0  0  0  0  0  0  0
   -0.2970   -3.2718    2.9759 H   0  0  0  0  0  0  0  0  0  0  0  0
    0.2107   -4.1722    1.5549 H   0  0  0  0  0  0  0  0  0  0  0  0
    1.3434   -3.9458    2.9006 H   0  0  0  0  0  0  0  0  0  0  0  0
    3.0519   -2.3662    2.3900 H   0  0  0  0  0  0  0  0  0  0  0  0
    3.7636   -0.2386    1.2868 H   0  0  0  0  0  0  0  0  0  0  0  0
    2.0836    1.0451   -0.0349 H   0  0  0  0  0  0  0  0  0  0  0  0
   -2.0852   -1.0083    0.1039 H   0  0  0  0  0  0  0  0  0  0  0  0
   -3.7777    0.2789   -1.1963 H   0  0  0  0  0  0  0  0  0  0  0  0
   -3.0570    2.3609   -2.3805 H   0  0  0  0  0  0  0  0  0  0  0  0
   -0.5762    4.2757   -1.6581 H   0  0  0  0  0  0  0  0  0  0  0  0
   -1.1713    3.6985   -3.2247 H   0  0  0  0  0  0  0  0  0  0  0  0
    0.4876    3.3461   -2.7049 H   0  0  0  0  0  0  0  0  0  0  0  0
  1  2  1  0
  2  3  2  0
  3  4  1  0
  4  5  2  0
  5  6  1  0
  6  7  1  0
  7  8  2  0
  8  9  1  0
  9 10  2  0
 10 11  1  0
 11 12  1  0
 11 13  2  0
  6 14  2  0
 14  2  1  0
 13  7  1  0
  1 15  1  0
  1 16  1  0
  1 17  1  0
  3 18  1  0
  4 19  1  0
  5 20  1  0
  8 21  1  0
  9 22  1  0
 10 23  1  0
 12 24  1  0
 12 25  1  0
 12 26  1  0
M  END
$$$$

     RDKit          3D

 26 27  0  0  0  0  0  0  0  0999 V2000
    0.7249    3.1664   -2.6717 C   0  0  0  0  0  0  0  0  0  0  0  0
    0.1090    1.8594   -2.2980 C   0  0  0  0  0  0  0  0  0  0  0  0
   -0.7048    1.1533   -3.1820 C   0  0  0  0  0  0  0  0  0  0  0  0
   -1.2551   -0.0561   -2.7822 C   0  0  0  0  0  0  0  0  0  0  0  0
   -0.9851   -0.5332   -1.5117 C   0  0  0  0  0  0  0  0  0  0  0  0
   -0.1671    0.2356   -0.6843 C   0  0  0  0  0  0  0  0  0  0  0  0
    0.1506   -0.2293    0.6885 C   0  0  0  0  0  0  0  0  0  0  0  0
    0.9066    0.5754    1.5370 C   0  0  0  0  0  0  0  0  0  0  0  0
    1.1684    0.1067    2.8086 C   0  0  0  0  0  0  0  0  0  0  0  0
    0.6794   -1.1386    3.1876 C   0  0  0  0  0  0  0  0  0  0  0  0
   -0.0620   -1.8876    2.2770 C   0  0  0  0  0  0  0  0  0  0  0  0
   -0.6305   -3.2191    2.6416 C   0  0  0  0  0  0  0  0  0  0  0  0
   -0.3240   -1.4320    1.0419 N   0  0  0  0  0  0  0  0  0  0  0  0
    0.3671    1.4021   -1.0625 N   0  0  0  0  0  0  0  0  0  0  0  0
    0.6346    3.3530   -3.7477 H   0  0  0  0  0  0  0  0  0  0  0  0
    0.2393    3.9853   -2.1389 H   0  0  0  0  0  0  0  0  0  0  0  0
    1.7822    3.1913   -2.4085 H   0  0  0  0  0  0  0  0  0  0  0  0
   -0.8926    1.5549   -4.1726 H   0  0  0  0  0  0  0  0  0  0  0  0
   -1.8917   -0.6269   -3.4481 H   0  0  0  0  0  0  0  0  0  0  0  0
   -1.3868   -1.4687   -1.1639 H   0  0  0  0  0  0  0  0  0  0  0  0
    1.2733    1.5302    1.1940 H   0  0  0  0  0  0  0  0  0  0  0  0
    1.7436    0.7068    3.5033 H   0  0  0  0  0  0  0  0  0  0  0  0
    0.8703   -1.5390    4.1795 H   0  0  0  0  0  0  0  0  0  0  0  0
   -0.0610   -3.6822    3.4541 H   0  0  0  0  0  0  0  0  0  0  0  0
   -0.6231   -3.8962    1.7892 H   0  0  0  0  0  0  0  0  0  0  0  0
   -1.6658   -3.1115    2.9702 H   0  0  0  0  0  0  0  0  0  0  0  0
  1  2  1  0
  2  3  2  0
  3  4  1  0
  4  5  2  0
  5  6  1  0
  6  7  1  0
  7  8  2  0
  8  9  1  0
  9 10  2  0
 10 11  1  0
 11 12  1  0
 11 13  2  0
  6 14  2  0
 14  2  1  0
 13  7  1  0
  1 15  1  0
  1 16  1  0
  1 17  1  0
  3 18  1  0
  4 19  1  0
  5 20  1  0
  8 21  1  0
  9 22  1  0
 10 23  1  0
 12 24  1  0
 12 25  1  0
 12 26  1  0
M  END
$$$$

     RDKit          3D

 26 27  0  0  0  0  0  0  0  0999 V2000
   -0.7362   -3.7531   -1.7564 C   0  0  0  0  0  0  0  0  0  0  0  0
   -0.6980   -2.8129   -0.5968 C   0  0  0  0  0  0  0  0  0  0  0  0
   -1.0960   -3.2044    0.6790 C   0  0  0  0  0  0  0  0  0  0  0  0
   -1.0612   -2.2843    1.7168 C   0  0  0  0  0  0  0  0  0  0  0  0
   -0.6316   -0.9944    1.4624 C   0  0  0  0  0  0  0  0  0  0  0  0
   -0.2412   -0.6832    0.1605 C   0  0  0  0  0  0  0  0  0  0  0  0
    0.2421    0.6813   -0.1619 C   0  0  0  0  0  0  0  0  0  0  0  0
    0.6501    0.9891   -1.4571 C   0  0  0  0  0  0  0  0  0  0  0  0
    1.1037    2.2687   -1.7058 C   0  0  0  0  0  0  0  0  0  0  0  0
    1.1333    3.1941   -0.6668 C   0  0  0  0  0  0  0  0  0  0  0  0
    0.7036    2.8092    0.6019 C   0  0  0  0  0  0  0  0  0  0  0  0
    0.6909    3.7665    1.7466 C   0  0  0  0  0  0  0  0  0  0  0  0
    0.2641    1.5661    0.8442 N   0  0  0  0  0  0  0  0  0  0  0  0
   -0.2711   -1.5638   -0.8461 N   0  0  0  0  0  0  0  0  0  0  0  0
   -1.0019   -4.7686   -1.4386 H   0  0  0  0  0  0  0  0  0  0  0  0
    0.2314   -3.7940   -2.2558 H   0  0  0  0  0  0  0  0  0  0  0  0
   -1.4702   -3.4259   -2.4935 H   0  0  0  0  0  0  0  0  0  0  0  0
   -1.4268   -4.2262    0.8476 H   0  0  0  0  0  0  0  0  0  0  0  0
   -1.3679   -2.5630    2.7176 H   0  0  0  0  0  0  0  0  0  0  0  0
   -0.5911   -0.2486    2.2401 H   0  0  0  0  0  0  0  0  0  0  0  0
    0.6084    0.2397   -2.2326 H   0  0  0  0  0  0  0  0  0  0  0  0
    1.4366    2.5443   -2.7002 H   0  0  0  0  0  0  0  0  0  0  0  0
    1.4870    4.2088   -0.8272 H   0  0  0  0  0  0  0  0  0  0  0  0
    1.5256    4.4687    1.6768 H   0  0  0  0  0  0  0  0  0  0  0  0
    0.7550    3.2443    2.7005 H   0  0  0  0  0  0  0  0  0  0  0  0
   -0.2387    4.3414    1.7448 H   0  0  0  0  0  0  0  0  0  0  0  0
  1  2  1  0
  2  3  2  0
  3  4  1  0
  4  5  2  0
  5  6  1  0
  6  7  1  0
  7  8  2  0
  8  9  1  0
  9 10  2  0
 10 11  1  0
 11 12  1  0
 11 13  2  0
  6 14  2  0
 14  2  1  0
 13  7  1  0
  1 15  1  0
  1 16  1  0
  1 17  1  0
  3 18  1  0
  4 19  1  0
  5 20  1  0
  8 21  1  0
  9 22  1  0
 10 23  1  0
 12 24  1  0
 12 25  1  0
 12 26  1  0
M  END
$$$$

     RDKit          3D

 26 27  0  0  0  0  0  0  0  0999 V2000
    1.1546   -1.5819    3.7213 C   0  0  0  0  0  0  0  0  0  0  0  0
    0.4244   -1.6492    2.4219 C   0  0  0  0  0  0  0  0  0  0  0  0
   -0.3266   -2.7638    2.0581 C   0  0  0  0  0  0  0  0  0  0  0  0
   -0.9683   -2.7783    0.8292 C   0  0  0  0  0  0  0  0  0  0  0  0
   -0.8478   -1.6815   -0.0077 C   0  0  0  0  0  0  0  0  0  0  0  0
   -0.0868   -0.6002    0.4341 C   0  0  0  0  0  0  0  0  0  0  0  0
    0.0664    0.6019   -0.4211 C   0  0  0  0  0  0  0  0  0  0  0  0
    0.8006    1.6919    0.0360 C   0  0  0  0  0  0  0  0  0  0  0  0
    0.9172    2.7876   -0.7959 C   0  0  0  0  0  0  0  0  0  0  0  0
    0.3040    2.7626   -2.0445 C   0  0  0  0  0  0  0  0  0  0  0  0
   -0.4225    1.6352   -2.4264 C   0  0  0  0  0  0  0  0  0  0  0  0
   -1.0972    1.5661   -3.7553 C   0  0  0  0  0  0  0  0  0  0  0  0
   -0.5303    0.5694   -1.6219 N   0  0  0  0  0  0  0  0  0  0  0  0
    0.5365   -0.5786    1.6159 N   0  0  0  0  0  0  0  0  0  0  0  0
    0.8491   -0.7048    4.2898 H   0  0  0  0  0  0  0  0  0  0  0  0
    0.9641   -2.4752    4.3313 H   0  0  0  0  0  0  0  0  0  0  0  0
    2.2306   -1.5045    3.5542 H   0  0  0  0  0  0  0  0  0  0  0  0
   -0.4020   -3.6073    2.7384 H   0  0  0  0  0  0  0  0  0  0  0  0
   -1.5569   -3.6327    0.5177 H   0  0  0  0  0  0  0  0  0  0  0  0
   -1.3257   -1.6524   -0.9715 H   0  0  0  0  0  0  0  0  0  0  0  0
    1.2556    1.6712    1.0139 H   0  0  0  0  0  0  0  0  0  0  0  0
    1.4831    3.6544   -0.4777 H   0  0  0  0  0  0  0  0  0  0  0  0
    0.3785    3.6063   -2.7251 H   0  0  0  0  0  0  0  0  0  0  0  0
   -1.7398    0.6889   -3.8352 H   0  0  0  0  0  0  0  0  0  0  0  0
   -0.3553    1.5171   -4.5573 H   0  0  0  0  0  0  0  0  0  0  0  0
   -1.7054    2.4579   -3.9221 H   0  0  0  0  0  0  0  0  0  0  0  0
  1  2  1  0
  2  3  2  0
  3  4  1  0
  4  5  2  0
  5  6  1  0
  6  7  1  0
  7  8  2  0
  8  9  1  0
  9 10  2  0
 10 11  1  0
 11 12  1  0
 11 13  2  0
  6 14  2  0
 14  2  1  0
 13  7  1  0
  1 15  1  0
  1 16  1  0
  1 17  1  0
  3 18  1  0
  4 19  1  0
  5 20  1  0
  8 21  1  0
  9 22  1  0
 10 23  1  0
 12 24  1  0
 12 25  1  0
 12 26  1  0
M  END
$$$$

     RDKit          3D

 26 27  0  0  0  0  0  0  0  0999 V2000
    2.0682   -3.3300   -1.4988 C   0  0  0  0  0  0  0  0  0  0  0  0
    1.7992   -2.3019   -0.4530 C   0  0  0  0  0  0  0  0  0  0  0  0
    2.4699   -2.2941    0.7686 C   0  0  0  0  0  0  0  0  0  0  0  0
    2.1635   -1.3177    1.7054 C   0  0  0  0  0  0  0  0  0  0  0  0
    1.1928   -0.3763    1.4077 C   0  0  0  0  0  0  0  0  0  0  0  0
    0.5702   -0.4509    0.1622 C   0  0  0  0  0  0  0  0  0  0  0  0
   -0.4740    0.5350   -0.2073 C   0  0  0  0  0  0  0  0  0  0  0  0
   -0.9343    0.6096   -1.5199 C   0  0  0  0  0  0  0  0  0  0  0  0
   -1.9048    1.5459   -1.8130 C   0  0  0  0  0  0  0  0  0  0  0  0
   -2.3830    2.3688   -0.7986 C   0  0  0  0  0  0  0  0  0  0  0  0
   -1.8746    2.2286    0.4916 C   0  0  0  0  0  0  0  0  0  0  0  0
   -2.3721    3.0579    1.6275 C   0  0  0  0  0  0  0  0  0  0  0  0
   -0.9252    1.3234    0.7760 N   0  0  0  0  0  0  0  0  0  0  0  0
    0.8641   -1.3829   -0.7468 N   0  0  0  0  0  0  0  0  0  0  0  0
    1.2245   -4.0182   -1.5816 H   0  0  0  0  0  0  0  0  0  0  0  0
    2.2082   -2.8660   -2.4735 H   0  0  0  0  0  0  0  0  0  0  0  0
    2.9661   -3.9135   -1.2656 H   0  0  0  0  0  0  0  0  0  0  0  0
    3.2274   -3.0464    0.9725 H   0  0  0  0  0  0  0  0  0  0  0  0
    2.6686   -1.2873    2.6632 H   0  0  0  0  0  0  0  0  0  0  0  0
    0.9268    0.4005    2.1042 H   0  0  0  0  0  0  0  0  0  0  0  0
   -0.5336   -0.0485   -2.2754 H   0  0  0  0  0  0  0  0  0  0  0  0
   -2.2891    1.6357   -2.8223 H   0  0  0  0  0  0  0  0  0  0  0  0
   -3.1440    3.1191   -0.9970 H   0  0  0  0  0  0  0  0  0  0  0  0
   -2.8499    3.9752    1.2631 H   0  0  0  0  0  0  0  0  0  0  0  0
   -3.1050    2.4997    2.2130 H   0  0  0  0  0  0  0  0  0  0  0  0
   -1.5599    3.3343    2.2978 H   0  0  0  0  0  0  0  0  0  0  0  0
  1  2  1  0
  2  3  2  0
  3  4  1  0
  4  5  2  0
  5  6  1  0
  6  7  1  0
  7  8  2  0
  8  9  1  0
  9 10  2  0
 10 11  1  0
 11 12  1  0
 11 13  2  0
  6 14  2  0
 14  2  1  0
 13  7  1  0
  1 15  1  0
  1 16  1  0
  1 17  1  0
  3 18  1  0
  4 19  1  0
  5 20  1  0
  8 21  1  0
  9 22  1  0
 10 23  1  0
 12 24  1  0
 12 25  1  0
 12 26  1  0
M  END
$$$$

     RDKit          3D

 26 27  0  0  0  0  0  0  0  0999 V2000
   -4.0703    1.0866   -0.0190 C   0  0  0  0  0  0  0  0  0  0  0  0
   -2.9138    0.2654    0.4447 C   0  0  0  0  0  0  0  0  0  0  0  0
   -3.0693   -0.7342    1.4023 C   0  0  0  0  0  0  0  0  0  0  0  0
   -1.9595   -1.4516    1.8223 C   0  0  0  0  0  0  0  0  0  0  0  0
   -0.7200   -1.1596    1.2787 C   0  0  0  0  0  0  0  0  0  0  0  0
   -0.6475   -0.1521    0.3189 C   0  0  0  0  0  0  0  0  0  0  0  0
    0.6573    0.1819   -0.3048 C   0  0  0  0  0  0  0  0  0  0  0  0
    0.7325    1.1901   -1.2624 C   0  0  0  0  0  0  0  0  0  0  0  0
    1.9612    1.4512   -1.8324 C   0  0  0  0  0  0  0  0  0  0  0  0
    3.0690    0.7154   -1.4237 C   0  0  0  0  0  0  0  0  0  0  0  0
    2.9144   -0.2713   -0.4530 C   0  0  0  0  0  0  0  0  0  0  0  0
    4.0614   -1.0975    0.0223 C   0  0  0  0  0  0  0  0  0  0  0  0
    1.7180   -0.5285    0.0981 N   0  0  0  0  0  0  0  0  0  0  0  0
   -1.7129    0.5465   -0.0884 N   0  0  0  0  0  0  0  0  0  0  0  0
   -4.0764    2.0553    0.4841 H   0  0  0  0  0  0  0  0  0  0  0  0
   -4.0168    1.2731   -1.0905 H   0  0  0  0  0  0  0  0  0  0  0  0
   -5.0204    0.5853    0.1969 H   0  0  0  0  0  0  0  0  0  0  0  0
   -4.0557   -0.9392    1.8099 H   0  0  0  0  0  0  0  0  0  0  0  0
   -2.0475   -2.2341    2.5655 H   0  0  0  0  0  0  0  0  0  0  0  0
    0.1676   -1.6912    1.5766 H   0  0  0  0  0  0  0  0  0  0  0  0
   -0.1543    1.7375   -1.5406 H   0  0  0  0  0  0  0  0  0  0  0  0
    2.0597    2.2228   -2.5866 H   0  0  0  0  0  0  0  0  0  0  0  0
    4.0483    0.8964   -1.8551 H   0  0  0  0  0  0  0  0  0  0  0  0
    3.9496   -2.1284   -0.3091 H   0  0  0  0  0  0  0  0  0  0  0  0
    5.0125   -0.7127   -0.3649 H   0  0  0  0  0  0  0  0  0  0  0  0
    4.1128   -1.1073    1.1105 H   0  0  0  0  0  0  0  0  0  0  0  0
  1  2  1  0
  2  3  2  0
  3  4  1  0
  4  5  2  0
  5  6  1  0
  6  7  1  0
  7  8  2  0
  8  9  1  0
  9 10  2  0
 10 11  1  0
 11 12  1  0
 11 13  2  0
  6 14  2  0
 14  2  1  0
 13  7  1  0
  1 15  1  0
  1 16  1  0
  1 17  1  0
  3 18  1  0
  4 19  1  0
  5 20  1  0
  8 21  1  0
  9 22  1  0
 10 23  1  0
 12 24  1  0
 12 25  1  0
 12 26  1  0
M  END
$$$$

     RDKit          3D

 26 27  0  0  0  0  0  0  0  0999 V2000
    2.8412   -2.6814   -1.5427 C   0  0  0  0  0  0  0  0  0  0  0  0
    1.4473   -2.2987   -1.1748 C   0  0  0  0  0  0  0  0  0  0  0  0
    0.3752   -3.1740   -1.3281 C   0  0  0  0  0  0  0  0  0  0  0  0
   -0.8954   -2.7659   -0.9499 C   0  0  0  0  0  0  0  0  0  0  0  0
   -1.0705   -1.4956   -0.4280 C   0  0  0  0  0  0  0  0  0  0  0  0
    0.0528   -0.6778   -0.3093 C   0  0  0  0  0  0  0  0  0  0  0  0
   -0.0739    0.6915    0.2482 C   0  0  0  0  0  0  0  0  0  0  0  0
    1.0357    1.5323    0.2926 C   0  0  0  0  0  0  0  0  0  0  0  0
    0.8714    2.7930    0.8306 C   0  0  0  0  0  0  0  0  0  0  0  0
   -0.3795    3.1749    1.3007 C   0  0  0  0  0  0  0  0  0  0  0  0
   -1.4419    2.2765    1.2196 C   0  0  0  0  0  0  0  0  0  0  0  0
   -2.8091    2.6449    1.6874 C   0  0  0  0  0  0  0  0  0  0  0  0
   -1.2839    1.0524    0.6967 N   0  0  0  0  0  0  0  0  0  0  0  0
    1.2782   -1.0620   -0.6802 N   0  0  0  0  0  0  0  0  0  0  0  0
    3.2642   -1.9778   -2.2597 H   0  0  0  0  0  0  0  0  0  0  0  0
    3.4844   -2.6719   -0.6624 H   0  0  0  0  0  0  0  0  0  0  0  0
    2.8818   -3.6856   -1.9833 H   0  0  0  0  0  0  0  0  0  0  0  0
    0.5423   -4.1653   -1.7385 H   0  0  0  0  0  0  0  0  0  0  0  0
   -1.7461   -3.4279   -1.0525 H   0  0  0  0  0  0  0  0  0  0  0  0
   -2.0411   -1.1447   -0.1173 H   0  0  0  0  0  0  0  0  0  0  0  0
    1.9899    1.1943   -0.0814 H   0  0  0  0  0  0  0  0  0  0  0  0
    1.7121    3.4748    0.8813 H   0  0  0  0  0  0  0  0  0  0  0  0
   -0.5418    4.1564    1.7363 H   0  0  0  0  0  0  0  0  0  0  0  0
   -2.7548    3.3648    2.5099 H   0  0  0  0  0  0  0  0  0  0  0  0
   -3.3785    3.1009    0.8734 H   0  0  0  0  0  0  0  0  0  0  0  0
   -3.3600    1.7719    2.0315 H   0  0  0  0  0  0  0  0  0  0  0  0
  1  2  1  0
  2  3  2  0
  3  4  1  0
  4  5  2  0
  5  6  1  0
  6  7  1  0
  7  8  2  0
  8  9  1  0
  9 10  2  0
 10 11  1  0
 11 12  1  0
 11 13  2  0
  6 14  2  0
 14  2  1  0
 13  7  1  0
  1 15  1  0
  1 16  1  0
  1 17  1  0
  3 18  1  0
  4 19  1  0
  5 20  1  0
  8 21  1  0
  9 22  1  0
 10 23  1  0
 12 24  1  0
 12 25  1  0
 12 26  1  0
M  END
$$$$

     RDKit          3D

 26 27  0  0  0  0  0  0  0  0999 V2000
    0.6603   -3.2079   -2.6444 C   0  0  0  0  0  0  0  0  0  0  0  0
    0.9273   -2.4395   -1.3928 C   0  0  0  0  0  0  0  0  0  0  0  0
    1.8628   -2.8718   -0.4555 C   0  0  0  0  0  0  0  0  0  0  0  0
    2.0658   -2.1272    0.6973 C   0  0  0  0  0  0  0  0  0  0  0  0
    1.3339   -0.9685    0.8878 C   0  0  0  0  0  0  0  0  0  0  0  0
    0.4167   -0.6029   -0.0976 C   0  0  0  0  0  0  0  0  0  0  0  0
   -0.3991    0.6250    0.0699 C   0  0  0  0  0  0  0  0  0  0  0  0
   -1.3322    0.9807   -0.9003 C   0  0  0  0  0  0  0  0  0  0  0  0
   -2.0754    2.1254   -0.6926 C   0  0  0  0  0  0  0  0  0  0  0  0
   -1.8656    2.8736    0.4620 C   0  0  0  0  0  0  0  0  0  0  0  0
   -0.9093    2.4529    1.3837 C   0  0  0  0  0  0  0  0  0  0  0  0
   -0.6540    3.1979    2.6501 C   0  0  0  0  0  0  0  0  0  0  0  0
   -0.1872    1.3402    1.1816 N   0  0  0  0  0  0  0  0  0  0  0  0
    0.2141   -1.3148   -1.2106 N   0  0  0  0  0  0  0  0  0  0  0  0
    0.7299   -2.5619   -3.5173 H   0  0  0  0  0  0  0  0  0  0  0  0
   -0.3459   -3.6309   -2.6295 H   0  0  0  0  0  0  0  0  0  0  0  0
    1.3725   -4.0317   -2.7670 H   0  0  0  0  0  0  0  0  0  0  0  0
    2.4238   -3.7845   -0.6386 H   0  0  0  0  0  0  0  0  0  0  0  0
    2.7836   -2.4427    1.4452 H   0  0  0  0  0  0  0  0  0  0  0  0
    1.4592   -0.3572    1.7651 H   0  0  0  0  0  0  0  0  0  0  0  0
   -1.4578    0.3696   -1.7812 H   0  0  0  0  0  0  0  0  0  0  0  0
   -2.8166    2.4331   -1.4198 H   0  0  0  0  0  0  0  0  0  0  0  0
   -2.4331    3.7803    0.6521 H   0  0  0  0  0  0  0  0  0  0  0  0
   -0.9416    4.2487    2.5512 H   0  0  0  0  0  0  0  0  0  0  0  0
    0.3973    3.1514    2.9298 H   0  0  0  0  0  0  0  0  0  0  0  0
   -1.2294    2.7626    3.4712 H   0  0  0  0  0  0  0  0  0  0  0  0
  1  2  1  0
  2  3  2  0
  3  4  1  0
  4  5  2  0
  5  6  1  0
  6  7  1  0
  7  8  2  0
  8  9  1  0
  9 10  2  0
 10 11  1  0
 11 12  1  0
 11 13  2  0
  6 14  2  0
 14  2  1  0
 13  7  1  0
  1 15  1  0
  1 16  1  0
  1 17  1  0
  3 18  1  0
  4 19  1  0
  5 20  1  0
  8 21  1  0
  9 22  1  0
 10 23  1  0
 12 24  1  0
 12 25  1  0
 12 26  1  0
M  END
$$$$

     RDKit          3D

 26 27  0  0  0  0  0  0  0  0999 V2000
   -2.3258   -3.5013   -0.1662 C   0  0  0  0  0  0  0  0  0  0  0  0
   -1.0274   -2.7762   -0.0524 C   0  0  0  0  0  0  0  0  0  0  0  0
    0.1826   -3.4526    0.0847 C   0  0  0  0  0  0  0  0  0  0  0  0
    1.3584   -2.7266    0.2033 C   0  0  0  0  0  0  0  0  0  0  0  0
    1.3025   -1.3454    0.1796 C   0  0  0  0  0  0  0  0  0  0  0  0
    0.0530   -0.7421    0.0271 C   0  0  0  0  0  0  0  0  0  0  0  0
   -0.0619    0.7365   -0.0120 C   0  0  0  0  0  0  0  0  0  0  0  0
   -1.3121    1.3418   -0.1081 C   0  0  0  0  0  0  0  0  0  0  0  0
   -1.3603    2.7223   -0.1382 C   0  0  0  0  0  0  0  0  0  0  0  0
   -0.1744    3.4471   -0.0743 C   0  0  0  0  0  0  0  0  0  0  0  0
    1.0381    2.7660    0.0152 C   0  0  0  0  0  0  0  0  0  0  0  0
    2.3332    3.5029    0.0923 C   0  0  0  0  0  0  0  0  0  0  0  0
    1.0872    1.4277    0.0458 N   0  0  0  0  0  0  0  0  0  0  0  0
   -1.0842   -1.4347   -0.0816 N   0  0  0  0  0  0  0  0  0  0  0  0
   -2.8402   -3.2336   -1.0877 H   0  0  0  0  0  0  0  0  0  0  0  0
   -2.9880   -3.2447    0.6617 H   0  0  0  0  0  0  0  0  0  0  0  0
   -2.1768   -4.5893   -0.1613 H   0  0  0  0  0  0  0  0  0  0  0  0
    0.1922   -4.5380    0.1012 H   0  0  0  0  0  0  0  0  0  0  0  0
    2.3134   -3.2260    0.3171 H   0  0  0  0  0  0  0  0  0  0  0  0
    2.1904   -0.7427    0.2756 H   0  0  0  0  0  0  0  0  0  0  0  0
   -2.2076    0.7394   -0.1569 H   0  0  0  0  0  0  0  0  0  0  0  0
   -2.3141    3.2313   -0.2113 H   0  0  0  0  0  0  0  0  0  0  0  0
   -0.1733    4.5327   -0.0975 H   0  0  0  0  0  0  0  0  0  0  0  0
    2.4260    4.0109    1.0555 H   0  0  0  0  0  0  0  0  0  0  0  0
    2.3859    4.2628   -0.6902 H   0  0  0  0  0  0  0  0  0  0  0  0
    3.1831    2.8319   -0.0211 H   0  0  0  0  0  0  0  0  0  0  0  0
  1  2  1  0
  2  3  2  0
  3  4  1  0
  4  5  2  0
  5  6  1  0
  6  7  1  0
  7  8  2  0
  8  9  1  0
  9 10  2  0
 10 11  1  0
 11 12  1  0
 11 13  2  0
  6 14  2  0
 14  2  1  0
 13  7  1  0
  1 15  1  0
  1 16  1  0
  1 17  1  0
  3 18  1  0
  4 19  1  0
  5 20  1  0
  8 21  1  0
  9 22  1  0
 10 23  1  0
 12 24  1  0
 12 25  1  0
 12 26  1  0
M  END
$$$$

     RDKit          3D

 26 27  0  0  0  0  0  0  0  0999 V2000
   -2.7465   -3.1797    0.2485 C   0  0  0  0  0  0  0  0  0  0  0  0
   -2.3946   -1.7311    0.1585 C   0  0  0  0  0  0  0  0  0  0  0  0
   -3.3703   -0.7370    0.1398 C   0  0  0  0  0  0  0  0  0  0  0  0
   -2.9869    0.5931    0.0443 C   0  0  0  0  0  0  0  0  0  0  0  0
   -1.6405    0.9056   -0.0238 C   0  0  0  0  0  0  0  0  0  0  0  0
   -0.7259   -0.1467    0.0052 C   0  0  0  0  0  0  0  0  0  0  0  0
    0.7286    0.1352   -0.0593 C   0  0  0  0  0  0  0  0  0  0  0  0
    1.6442   -0.9128   -0.1117 C   0  0  0  0  0  0  0  0  0  0  0  0
    2.9869   -0.5955   -0.1652 C   0  0  0  0  0  0  0  0  0  0  0  0
    3.3706    0.7426   -0.1558 C   0  0  0  0  0  0  0  0  0  0  0  0
    2.3934    1.7326   -0.1001 C   0  0  0  0  0  0  0  0  0  0  0  0
    2.7420    3.1831   -0.1082 C   0  0  0  0  0  0  0  0  0  0  0  0
    1.0891    1.4250   -0.0624 N   0  0  0  0  0  0  0  0  0  0  0  0
   -1.0872   -1.4318    0.0940 N   0  0  0  0  0  0  0  0  0  0  0  0
   -2.2426   -3.6460    1.0945 H   0  0  0  0  0  0  0  0  0  0  0  0
   -2.4323   -3.7109   -0.6516 H   0  0  0  0  0  0  0  0  0  0  0  0
   -3.8275   -3.3208    0.3684 H   0  0  0  0  0  0  0  0  0  0  0  0
   -4.4192   -1.0128    0.1995 H   0  0  0  0  0  0  0  0  0  0  0  0
   -3.7251    1.3862    0.0267 H   0  0  0  0  0  0  0  0  0  0  0  0
   -1.2980    1.9260   -0.0911 H   0  0  0  0  0  0  0  0  0  0  0  0
    1.2994   -1.9357   -0.1026 H   0  0  0  0  0  0  0  0  0  0  0  0
    3.7324   -1.3790   -0.2128 H   0  0  0  0  0  0  0  0  0  0  0  0
    4.4187    1.0247   -0.1887 H   0  0  0  0  0  0  0  0  0  0  0  0
    2.0889    3.7458    0.5582 H   0  0  0  0  0  0  0  0  0  0  0  0
    2.6225    3.5954   -1.1117 H   0  0  0  0  0  0  0  0  0  0  0  0
    3.7797    3.3444    0.2072 H   0  0  0  0  0  0  0  0  0  0  0  0
  1  2  1  0
  2  3  2  0
  3  4  1  0
  4  5  2  0
  5  6  1  0
  6  7  1  0
  7  8  2  0
  8  9  1  0
  9 10  2  0
 10 11  1  0
 11 12  1  0
 11 13  2  0
  6 14  2  0
 14  2  1  0
 13  7  1  0
  1 15  1  0
  1 16  1  0
  1 17  1  0
  3 18  1  0
  4 19  1  0
  5 20  1  0
  8 21  1  0
  9 22  1  0
 10 23  1  0
 12 24  1  0
 12 25  1  0
 12 26  1  0
M  END
$$$$
