
     RDKit          3D

 40 43  0  0  0  0  0  0  0  0999 V2000
    4.0851    4.0197    4.0617 C   0  0  0  0  0  0  0  0  0  0  0  0
    2.7988    4.0333    4.5924 C   0  0  0  0  0  0  0  0  0  0  0  0
    1.7556    3.4542    3.8958 C   0  0  0  0  0  0  0  0  0  0  0  0
    1.9621    2.8476    2.6511 C   0  0  0  0  0  0  0  0  0  0  0  0
    0.8310    2.2421    1.9036 C   0  0  0  0  0  0  0  0  0  0  0  0
   -0.4349    2.8030    1.9398 C   0  0  0  0  0  0  0  0  0  0  0  0
   -1.4478    2.1963    1.2188 C   0  0  0  0  0  0  0  0  0  0  0  0
   -1.2960    1.1107    0.4925 N   0  0  0  0  0  0  0  0  0  0  0  0
   -0.0702    0.5610    0.4547 C   0  0  0  0  0  0  0  0  0  0  0  0
    0.0832   -0.6609   -0.3705 C   0  0  0  0  0  0  0  0  0  0  0  0
   -0.9888   -1.1547   -1.0838 C   0  0  0  0  0  0  0  0  0  0  0  0
   -0.8285   -2.2982   -1.8605 C   0  0  0  0  0  0  0  0  0  0  0  0
   -1.9599   -2.8458   -2.6522 C   0  0  0  0  0  0  0  0  0  0  0  0
   -2.1369   -4.2258   -2.7953 C   0  0  0  0  0  0  0  0  0  0  0  0
   -3.1797   -4.7406   -3.5405 C   0  0  0  0  0  0  0  0  0  0  0  0
   -4.0809   -3.8837   -4.1686 C   0  0  0  0  0  0  0  0  0  0  0  0
   -3.9170   -2.5104   -4.0347 C   0  0  0  0  0  0  0  0  0  0  0  0
   -2.8701   -1.9960   -3.2788 C   0  0  0  0  0  0  0  0  0  0  0  0
    0.4197   -2.8982   -1.8742 C   0  0  0  0  0  0  0  0  0  0  0  0
    1.4331   -2.3260   -1.1240 C   0  0  0  0  0  0  0  0  0  0  0  0
    1.2922   -1.2429   -0.3885 N   0  0  0  0  0  0  0  0  0  0  0  0
    1.0049    1.0924    1.1358 C   0  0  0  0  0  0  0  0  0  0  0  0
    3.2542    2.8373    2.1302 C   0  0  0  0  0  0  0  0  0  0  0  0
    4.3058    3.4218    2.8280 C   0  0  0  0  0  0  0  0  0  0  0  0
    4.9054    4.4721    4.6049 H   0  0  0  0  0  0  0  0  0  0  0  0
    2.6104    4.4876    5.5587 H   0  0  0  0  0  0  0  0  0  0  0  0
    0.7607    3.4649    4.3225 H   0  0  0  0  0  0  0  0  0  0  0  0
   -0.6445    3.7061    2.5114 H   0  0  0  0  0  0  0  0  0  0  0  0
   -2.4482    2.6283    1.2314 H   0  0  0  0  0  0  0  0  0  0  0  0
   -1.9489   -0.6605   -1.0253 H   0  0  0  0  0  0  0  0  0  0  0  0
   -1.4458   -4.9028   -2.3073 H   0  0  0  0  0  0  0  0  0  0  0  0
   -3.2962   -5.8154   -3.6277 H   0  0  0  0  0  0  0  0  0  0  0  0
   -4.8998   -4.2822   -4.7556 H   0  0  0  0  0  0  0  0  0  0  0  0
   -4.6009   -1.8267   -4.5209 H   0  0  0  0  0  0  0  0  0  0  0  0
   -2.7631   -0.9227   -3.1836 H   0  0  0  0  0  0  0  0  0  0  0  0
    0.6167   -3.7942   -2.4605 H   0  0  0  0  0  0  0  0  0  0  0  0
    2.4244   -2.7785   -1.1297 H   0  0  0  0  0  0  0  0  0  0  0  0
    1.9704    0.6065    1.0811 H   0  0  0  0  0  0  0  0  0  0  0  0
    3.4480    2.3748    1.1709 H   0  0  0  0  0  0  0  0  0  0  0  0
    5.2969    3.4065    2.3972 H   0  0  0  0  0  0  0  0  0  0  0  0
  1  2  2  0
  2  3  1  0
  3  4  2  0
  4  5  1  0
  5  6  2  0
  6  7  1  0
  7  8  2  0
  8  9  1  0
  9 10  1  0
 10 11  2  0
 11 12  1  0
 12 13  1  0
 13 14  2  0
 14 15  1  0
 15 16  2  0
 16 17  1  0
 17 18  2  0
 12 19  2  0
 19 20  1  0
 20 21  2  0
  9 22  2  0
  4 23  1  0
 23 24  2  0
 24  1  1  0
 22  5  1  0
 21 10  1  0
 18 13  1  0
  1 25  1  0
  2 26  1  0
  3 27  1  0
  6 28  1  0
  7 29  1  0
 11 30  1  0
 14 31  1  0
 15 32  1  0
 16 33  1  0
 17 34  1  0
 18 35  1  0
 19 36  1  0
 20 37  1  0
 22 38  1  0
 23 39  1  0
 24 40  1  0
M  END
$$$$

     RDKit          3D

 40 43  0  0  0  0  0  0  0  0999 V2000
   -0.2214    1.3494   -6.8825 C   0  0  0  0  0  0  0  0  0  0  0  0
   -1.5210    1.3935   -6.3809 C   0  0  0  0  0  0  0  0  0  0  0  0
   -1.7806    0.9774   -5.0879 C   0  0  0  0  0  0  0  0  0  0  0  0
   -0.7546    0.5103   -4.2581 C   0  0  0  0  0  0  0  0  0  0  0  0
   -1.0447    0.0558   -2.8757 C   0  0  0  0  0  0  0  0  0  0  0  0
   -2.1895   -0.6677   -2.5877 C   0  0  0  0  0  0  0  0  0  0  0  0
   -2.3936   -1.0855   -1.2845 C   0  0  0  0  0  0  0  0  0  0  0  0
   -1.5776   -0.8227   -0.2851 N   0  0  0  0  0  0  0  0  0  0  0  0
   -0.4753   -0.1044   -0.5570 C   0  0  0  0  0  0  0  0  0  0  0  0
    0.4280    0.1997    0.5804 C   0  0  0  0  0  0  0  0  0  0  0  0
    0.1563   -0.2871    1.8422 C   0  0  0  0  0  0  0  0  0  0  0  0
    1.0260   -0.0024    2.8915 C   0  0  0  0  0  0  0  0  0  0  0  0
    0.7643   -0.5175    4.2594 C   0  0  0  0  0  0  0  0  0  0  0  0
    1.8185   -0.9084    5.0922 C   0  0  0  0  0  0  0  0  0  0  0  0
    1.5852   -1.3808    6.3688 C   0  0  0  0  0  0  0  0  0  0  0  0
    0.2809   -1.4756    6.8533 C   0  0  0  0  0  0  0  0  0  0  0  0
   -0.7763   -1.0927    6.0365 C   0  0  0  0  0  0  0  0  0  0  0  0
   -0.5383   -0.6219    4.7476 C   0  0  0  0  0  0  0  0  0  0  0  0
    2.1410    0.7716    2.6121 C   0  0  0  0  0  0  0  0  0  0  0  0
    2.3191    1.2243    1.3153 C   0  0  0  0  0  0  0  0  0  0  0  0
    1.5032    0.9592    0.3159 N   0  0  0  0  0  0  0  0  0  0  0  0
   -0.1736    0.3403   -1.8286 C   0  0  0  0  0  0  0  0  0  0  0  0
    0.5421    0.4732   -4.7649 C   0  0  0  0  0  0  0  0  0  0  0  0
    0.8052    0.8822   -6.0691 C   0  0  0  0  0  0  0  0  0  0  0  0
   -0.0156    1.6715   -7.8942 H   0  0  0  0  0  0  0  0  0  0  0  0
   -2.3309    1.7625   -7.0005 H   0  0  0  0  0  0  0  0  0  0  0  0
   -2.7939    1.0093   -4.7109 H   0  0  0  0  0  0  0  0  0  0  0  0
   -2.9143   -0.9143   -3.3599 H   0  0  0  0  0  0  0  0  0  0  0  0
   -3.2770   -1.6754   -1.0411 H   0  0  0  0  0  0  0  0  0  0  0  0
   -0.7216   -0.8994    2.0052 H   0  0  0  0  0  0  0  0  0  0  0  0
    2.8335   -0.8501    4.7200 H   0  0  0  0  0  0  0  0  0  0  0  0
    2.4215   -1.6867    6.9885 H   0  0  0  0  0  0  0  0  0  0  0  0
    0.0947   -1.8458    7.8526 H   0  0  0  0  0  0  0  0  0  0  0  0
   -1.7957   -1.1522    6.3980 H   0  0  0  0  0  0  0  0  0  0  0  0
   -1.3737   -0.3209    4.1281 H   0  0  0  0  0  0  0  0  0  0  0  0
    2.8638    1.0344    3.3812 H   0  0  0  0  0  0  0  0  0  0  0  0
    3.1830    1.8449    1.0748 H   0  0  0  0  0  0  0  0  0  0  0  0
    0.7289    0.9154   -2.0039 H   0  0  0  0  0  0  0  0  0  0  0  0
    1.3552    0.1095   -4.1459 H   0  0  0  0  0  0  0  0  0  0  0  0
    1.8187    0.8273   -6.4453 H   0  0  0  0  0  0  0  0  0  0  0  0
  1  2  2  0
  2  3  1  0
  3  4  2  0
  4  5  1  0
  5  6  2  0
  6  7  1  0
  7  8  2  0
  8  9  1  0
  9 10  1  0
 10 11  2  0
 11 12  1  0
 12 13  1  0
 13 14  2  0
 14 15  1  0
 15 16  2  0
 16 17  1  0
 17 18  2  0
 12 19  2  0
 19 20  1  0
 20 21  2  0
  9 22  2  0
  4 23  1  0
 23 24  2  0
 24  1  1  0
 22  5  1  0
 21 10  1  0
 18 13  1  0
  1 25  1  0
  2 26  1  0
  3 27  1  0
  6 28  1  0
  7 29  1  0
 11 30  1  0
 14 31  1  0
 15 32  1  0
 16 33  1  0
 17 34  1  0
 18 35  1  0
 19 36  1  0
 20 37  1  0
 22 38  1  0
 23 39  1  0
 24 40  1  0
M  END
$$$$

     RDKit          3D

 40 43  0  0  0  0  0  0  0  0999 V2000
   -0.7969   -2.8313   -6.3512 C   0  0  0  0  0  0  0  0  0  0  0  0
    0.1535   -3.5640   -5.6415 C   0  0  0  0  0  0  0  0  0  0  0  0
    0.6604   -3.0765   -4.4523 C   0  0  0  0  0  0  0  0  0  0  0  0
    0.2312   -1.8504   -3.9321 C   0  0  0  0  0  0  0  0  0  0  0  0
    0.7707   -1.3339   -2.6485 C   0  0  0  0  0  0  0  0  0  0  0  0
    2.0932   -1.5350   -2.2913 C   0  0  0  0  0  0  0  0  0  0  0  0
    2.5289   -1.0334   -1.0776 C   0  0  0  0  0  0  0  0  0  0  0  0
    1.7660   -0.3791   -0.2283 N   0  0  0  0  0  0  0  0  0  0  0  0
    0.4832   -0.1830   -0.5687 C   0  0  0  0  0  0  0  0  0  0  0  0
   -0.3617    0.5532    0.4054 C   0  0  0  0  0  0  0  0  0  0  0  0
    0.1051    0.8082    1.6770 C   0  0  0  0  0  0  0  0  0  0  0  0
   -0.7028    1.5022    2.5724 C   0  0  0  0  0  0  0  0  0  0  0  0
   -0.2422    1.7899    3.9545 C   0  0  0  0  0  0  0  0  0  0  0  0
    0.5230    0.8607    4.6654 C   0  0  0  0  0  0  0  0  0  0  0  0
    0.9381    1.1326    5.9583 C   0  0  0  0  0  0  0  0  0  0  0  0
    0.6087    2.3441    6.5688 C   0  0  0  0  0  0  0  0  0  0  0  0
   -0.1502    3.2737    5.8686 C   0  0  0  0  0  0  0  0  0  0  0  0
   -0.5722    2.9945    4.5754 C   0  0  0  0  0  0  0  0  0  0  0  0
   -1.9472    1.9220    2.1320 C   0  0  0  0  0  0  0  0  0  0  0  0
   -2.3263    1.6105    0.8384 C   0  0  0  0  0  0  0  0  0  0  0  0
   -1.5737    0.9450   -0.0115 N   0  0  0  0  0  0  0  0  0  0  0  0
   -0.0440   -0.6339   -1.7610 C   0  0  0  0  0  0  0  0  0  0  0  0
   -0.7167   -1.1242   -4.6505 C   0  0  0  0  0  0  0  0  0  0  0  0
   -1.2246   -1.6091   -5.8514 C   0  0  0  0  0  0  0  0  0  0  0  0
   -1.1947   -3.2119   -7.2849 H   0  0  0  0  0  0  0  0  0  0  0  0
    0.4927   -4.5216   -6.0209 H   0  0  0  0  0  0  0  0  0  0  0  0
    1.3986   -3.6523   -3.9119 H   0  0  0  0  0  0  0  0  0  0  0  0
    2.7873   -2.0671   -2.9391 H   0  0  0  0  0  0  0  0  0  0  0  0
    3.5686   -1.1724   -0.7803 H   0  0  0  0  0  0  0  0  0  0  0  0
    1.0957    0.4780    1.9630 H   0  0  0  0  0  0  0  0  0  0  0  0
    0.7814   -0.0868    4.2060 H   0  0  0  0  0  0  0  0  0  0  0  0
    1.5166    0.3928    6.4955 H   0  0  0  0  0  0  0  0  0  0  0  0
    0.9394    2.5547    7.5777 H   0  0  0  0  0  0  0  0  0  0  0  0
   -0.4088    4.2247    6.3227 H   0  0  0  0  0  0  0  0  0  0  0  0
   -1.1550    3.7316    4.0396 H   0  0  0  0  0  0  0  0  0  0  0  0
   -2.6249    2.4691    2.7786 H   0  0  0  0  0  0  0  0  0  0  0  0
   -3.3045    1.9238    0.4708 H   0  0  0  0  0  0  0  0  0  0  0  0
   -1.0888   -0.4585   -1.9896 H   0  0  0  0  0  0  0  0  0  0  0  0
   -1.0532   -0.1644   -4.2829 H   0  0  0  0  0  0  0  0  0  0  0  0
   -1.9539   -1.0225   -6.3946 H   0  0  0  0  0  0  0  0  0  0  0  0
  1  2  2  0
  2  3  1  0
  3  4  2  0
  4  5  1  0
  5  6  2  0
  6  7  1  0
  7  8  2  0
  8  9  1  0
  9 10  1  0
 10 11  2  0
 11 12  1  0
 12 13  1  0
 13 14  2  0
 14 15  1  0
 15 16  2  0
 16 17  1  0
 17 18  2  0
 12 19  2  0
 19 20  1  0
 20 21  2  0
  9 22  2  0
  4 23  1  0
 23 24  2  0
 24  1  1  0
 22  5  1  0
 21 10  1  0
 18 13  1  0
  1 25  1  0
  2 26  1  0
  3 27  1  0
  6 28  1  0
  7 29  1  0
 11 30  1  0
 14 31  1  0
 15 32  1  0
 16 33  1  0
 17 34  1  0
 18 35  1  0
 19 36  1  0
 20 37  1  0
 22 38  1  0
 23 39  1  0
 24 40  1  0
M  END
$$$$

     RDKit          3D

 40 43  0  0  0  0  0  0  0  0999 V2000
    6.7979   -1.1397    1.1651 C   0  0  0  0  0  0  0  0  0  0  0  0
    6.1508   -1.3269    2.3852 C   0  0  0  0  0  0  0  0  0  0  0  0
    4.7707   -1.3162    2.4467 C   0  0  0  0  0  0  0  0  0  0  0  0
    3.9931   -1.1119    1.2983 C   0  0  0  0  0  0  0  0  0  0  0  0
    2.5096   -1.1026    1.3682 C   0  0  0  0  0  0  0  0  0  0  0  0
    1.8284   -1.9252    2.2487 C   0  0  0  0  0  0  0  0  0  0  0  0
    0.4448   -1.8860    2.2546 C   0  0  0  0  0  0  0  0  0  0  0  0
   -0.2786   -1.1026    1.4792 N   0  0  0  0  0  0  0  0  0  0  0  0
    0.3772   -0.2914    0.6360 C   0  0  0  0  0  0  0  0  0  0  0  0
   -0.4421    0.6078   -0.2143 C   0  0  0  0  0  0  0  0  0  0  0  0
   -1.7948    0.3979   -0.3645 C   0  0  0  0  0  0  0  0  0  0  0  0
   -2.5272    1.2553   -1.1770 C   0  0  0  0  0  0  0  0  0  0  0  0
   -3.9862    1.0560   -1.3708 C   0  0  0  0  0  0  0  0  0  0  0  0
   -4.5737    1.2379   -2.6263 C   0  0  0  0  0  0  0  0  0  0  0  0
   -5.9320    1.0534   -2.8089 C   0  0  0  0  0  0  0  0  0  0  0  0
   -6.7413    0.6883   -1.7340 C   0  0  0  0  0  0  0  0  0  0  0  0
   -6.1692    0.5116   -0.4804 C   0  0  0  0  0  0  0  0  0  0  0  0
   -4.7996    0.6884   -0.3029 C   0  0  0  0  0  0  0  0  0  0  0  0
   -1.8618    2.2985   -1.7951 C   0  0  0  0  0  0  0  0  0  0  0  0
   -0.5039    2.4327   -1.5705 C   0  0  0  0  0  0  0  0  0  0  0  0
    0.2017    1.6216   -0.8138 N   0  0  0  0  0  0  0  0  0  0  0  0
    1.7547   -0.2648    0.5500 C   0  0  0  0  0  0  0  0  0  0  0  0
    4.6494   -0.9226    0.0813 C   0  0  0  0  0  0  0  0  0  0  0  0
    6.0395   -0.9421    0.0161 C   0  0  0  0  0  0  0  0  0  0  0  0
    7.8796   -1.1483    1.1117 H   0  0  0  0  0  0  0  0  0  0  0  0
    6.7308   -1.4777    3.2904 H   0  0  0  0  0  0  0  0  0  0  0  0
    4.2796   -1.4605    3.4004 H   0  0  0  0  0  0  0  0  0  0  0  0
    2.3536   -2.6002    2.9211 H   0  0  0  0  0  0  0  0  0  0  0  0
   -0.1074   -2.5334    2.9357 H   0  0  0  0  0  0  0  0  0  0  0  0
   -2.2752   -0.4360    0.1361 H   0  0  0  0  0  0  0  0  0  0  0  0
   -3.9535    1.5243   -3.4639 H   0  0  0  0  0  0  0  0  0  0  0  0
   -6.3646    1.1853   -3.7944 H   0  0  0  0  0  0  0  0  0  0  0  0
   -7.8056    0.5455   -1.8764 H   0  0  0  0  0  0  0  0  0  0  0  0
   -6.7813    0.2399    0.3674 H   0  0  0  0  0  0  0  0  0  0  0  0
   -4.3663    0.5486    0.6791 H   0  0  0  0  0  0  0  0  0  0  0  0
   -2.3814    3.0045   -2.4378 H   0  0  0  0  0  0  0  0  0  0  0  0
    0.0467    3.2541   -2.0332 H   0  0  0  0  0  0  0  0  0  0  0  0
    2.2363    0.4158   -0.1407 H   0  0  0  0  0  0  0  0  0  0  0  0
    4.0759   -0.7702   -0.8240 H   0  0  0  0  0  0  0  0  0  0  0  0
    6.5253   -0.8088   -0.9423 H   0  0  0  0  0  0  0  0  0  0  0  0
  1  2  2  0
  2  3  1  0
  3  4  2  0
  4  5  1  0
  5  6  2  0
  6  7  1  0
  7  8  2  0
  8  9  1  0
  9 10  1  0
 10 11  2  0
 11 12  1  0
 12 13  1  0
 13 14  2  0
 14 15  1  0
 15 16  2  0
 16 17  1  0
 17 18  2  0
 12 19  2  0
 19 20  1  0
 20 21  2  0
  9 22  2  0
  4 23  1  0
 23 24  2  0
 24  1  1  0
 22  5  1  0
 21 10  1  0
 18 13  1  0
  1 25  1  0
  2 26  1  0
  3 27  1  0
  6 28  1  0
  7 29  1  0
 11 30  1  0
 14 31  1  0
 15 32  1  0
 16 33  1  0
 17 34  1  0
 18 35  1  0
 19 36  1  0
 20 37  1  0
 22 38  1  0
 23 39  1  0
 24 40  1  0
M  END
$$$$

     RDKit          3D

 40 43  0  0  0  0  0  0  0  0999 V2000
    5.3278   -4.3457   -1.3325 C   0  0  0  0  0  0  0  0  0  0  0  0
    5.7959   -3.0482   -1.5238 C   0  0  0  0  0  0  0  0  0  0  0  0
    4.9158   -1.9819   -1.4883 C   0  0  0  0  0  0  0  0  0  0  0  0
    3.5471   -2.1763   -1.2647 C   0  0  0  0  0  0  0  0  0  0  0  0
    2.6072   -1.0282   -1.2362 C   0  0  0  0  0  0  0  0  0  0  0  0
    2.7572    0.0434   -2.1010 C   0  0  0  0  0  0  0  0  0  0  0  0
    1.8414    1.0804   -2.0336 C   0  0  0  0  0  0  0  0  0  0  0  0
    0.8282    1.1178   -1.1940 N   0  0  0  0  0  0  0  0  0  0  0  0
    0.6823    0.0847   -0.3490 C   0  0  0  0  0  0  0  0  0  0  0  0
   -0.4592    0.1438    0.5962 C   0  0  0  0  0  0  0  0  0  0  0  0
   -1.4362    1.1076    0.4607 C   0  0  0  0  0  0  0  0  0  0  0  0
   -2.5089    1.1232    1.3482 C   0  0  0  0  0  0  0  0  0  0  0  0
   -3.5838    2.1411    1.2306 C   0  0  0  0  0  0  0  0  0  0  0  0
   -4.9142    1.8263    1.5349 C   0  0  0  0  0  0  0  0  0  0  0  0
   -5.9157    2.7705    1.4225 C   0  0  0  0  0  0  0  0  0  0  0  0
   -5.6124    4.0675    1.0076 C   0  0  0  0  0  0  0  0  0  0  0  0
   -4.2961    4.3968    0.7145 C   0  0  0  0  0  0  0  0  0  0  0  0
   -3.2895    3.4404    0.8202 C   0  0  0  0  0  0  0  0  0  0  0  0
   -2.5406    0.1603    2.3419 C   0  0  0  0  0  0  0  0  0  0  0  0
   -1.5032   -0.7533    2.4053 C   0  0  0  0  0  0  0  0  0  0  0  0
   -0.4882   -0.7789    1.5685 N   0  0  0  0  0  0  0  0  0  0  0  0
    1.5414   -0.9964   -0.3412 C   0  0  0  0  0  0  0  0  0  0  0  0
    3.0871   -3.4770   -1.0749 C   0  0  0  0  0  0  0  0  0  0  0  0
    3.9700   -4.5523   -1.1099 C   0  0  0  0  0  0  0  0  0  0  0  0
    6.0112   -5.1843   -1.3605 H   0  0  0  0  0  0  0  0  0  0  0  0
    6.8521   -2.8711   -1.6957 H   0  0  0  0  0  0  0  0  0  0  0  0
    5.2901   -0.9764   -1.6323 H   0  0  0  0  0  0  0  0  0  0  0  0
    3.5658    0.0785   -2.8264 H   0  0  0  0  0  0  0  0  0  0  0  0
    1.9386    1.9292   -2.7093 H   0  0  0  0  0  0  0  0  0  0  0  0
   -1.3719    1.8288   -0.3463 H   0  0  0  0  0  0  0  0  0  0  0  0
   -5.1590    0.8219    1.8584 H   0  0  0  0  0  0  0  0  0  0  0  0
   -6.9413    2.4981    1.6509 H   0  0  0  0  0  0  0  0  0  0  0  0
   -6.3975    4.8078    0.9101 H   0  0  0  0  0  0  0  0  0  0  0  0
   -4.0370    5.4011    0.4034 H   0  0  0  0  0  0  0  0  0  0  0  0
   -2.2663    3.7191    0.6009 H   0  0  0  0  0  0  0  0  0  0  0  0
   -3.3497    0.1120    3.0662 H   0  0  0  0  0  0  0  0  0  0  0  0
   -1.4977   -1.5121    3.1884 H   0  0  0  0  0  0  0  0  0  0  0  0
    1.3916   -1.8032    0.3666 H   0  0  0  0  0  0  0  0  0  0  0  0
    2.0320   -3.6603   -0.9081 H   0  0  0  0  0  0  0  0  0  0  0  0
    3.5854   -5.5543   -0.9685 H   0  0  0  0  0  0  0  0  0  0  0  0
  1  2  2  0
  2  3  1  0
  3  4  2  0
  4  5  1  0
  5  6  2  0
  6  7  1  0
  7  8  2  0
  8  9  1  0
  9 10  1  0
 10 11  2  0
 11 12  1  0
 12 13  1  0
 13 14  2  0
 14 15  1  0
 15 16  2  0
 16 17  1  0
 17 18  2  0
 12 19  2  0
 19 20  1  0
 20 21  2  0
  9 22  2  0
  4 23  1  0
 23 24  2  0
 24  1  1  0
 22  5  1  0
 21 10  1  0
 18 13  1  0
  1 25  1  0
  2 26  1  0
  3 27  1  0
  6 28  1  0
  7 29  1  0
 11 30  1  0
 14 31  1  0
 15 32  1  0
 16 33  1  0
 17 34  1  0
 18 35  1  0
 19 36  1  0
 20 37  1  0
 22 38  1  0
 23 39  1  0
 24 40  1  0
M  END
$$$$

     RDKit          3D

 40 43  0  0  0  0  0  0  0  0999 V2000
    5.1169   -4.6727   -1.0282 C   0  0  0  0  0  0  0  0  0  0  0  0
    5.3781   -4.0252    0.1788 C   0  0  0  0  0  0  0  0  0  0  0  0
    4.4409   -3.1665    0.7213 C   0  0  0  0  0  0  0  0  0  0  0  0
    3.2181   -2.9253    0.0806 C   0  0  0  0  0  0  0  0  0  0  0  0
    2.2160   -2.0012    0.6727 C   0  0  0  0  0  0  0  0  0  0  0  0
    2.0469   -1.9063    2.0449 C   0  0  0  0  0  0  0  0  0  0  0  0
    1.1023   -1.0199    2.5334 C   0  0  0  0  0  0  0  0  0  0  0  0
    0.3473   -0.2507    1.7765 N   0  0  0  0  0  0  0  0  0  0  0  0
    0.5088   -0.3392    0.4457 C   0  0  0  0  0  0  0  0  0  0  0  0
   -0.3405    0.5356   -0.4003 C   0  0  0  0  0  0  0  0  0  0  0  0
   -1.3614    1.2718    0.1593 C   0  0  0  0  0  0  0  0  0  0  0  0
   -2.1404    2.0870   -0.6568 C   0  0  0  0  0  0  0  0  0  0  0  0
   -3.2531    2.8886   -0.0879 C   0  0  0  0  0  0  0  0  0  0  0  0
   -4.4414    3.0746   -0.8024 C   0  0  0  0  0  0  0  0  0  0  0  0
   -5.4812    3.8217   -0.2789 C   0  0  0  0  0  0  0  0  0  0  0  0
   -5.3557    4.4091    0.9804 C   0  0  0  0  0  0  0  0  0  0  0  0
   -4.1780    4.2355    1.6974 C   0  0  0  0  0  0  0  0  0  0  0  0
   -3.1373    3.4765    1.1699 C   0  0  0  0  0  0  0  0  0  0  0  0
   -1.8443    2.1233   -2.0097 C   0  0  0  0  0  0  0  0  0  0  0  0
   -0.7982    1.3459   -2.4755 C   0  0  0  0  0  0  0  0  0  0  0  0
   -0.0590    0.5694   -1.7141 N   0  0  0  0  0  0  0  0  0  0  0  0
    1.4213   -1.1943   -0.1366 C   0  0  0  0  0  0  0  0  0  0  0  0
    2.9653   -3.5750   -1.1278 C   0  0  0  0  0  0  0  0  0  0  0  0
    3.9073   -4.4433   -1.6752 C   0  0  0  0  0  0  0  0  0  0  0  0
    5.8484   -5.3468   -1.4565 H   0  0  0  0  0  0  0  0  0  0  0  0
    6.3215   -4.1889    0.6911 H   0  0  0  0  0  0  0  0  0  0  0  0
    4.6568   -2.6558    1.6512 H   0  0  0  0  0  0  0  0  0  0  0  0
    2.6239   -2.5190    2.7348 H   0  0  0  0  0  0  0  0  0  0  0  0
    0.9547   -0.9303    3.6111 H   0  0  0  0  0  0  0  0  0  0  0  0
   -1.5621    1.1973    1.2221 H   0  0  0  0  0  0  0  0  0  0  0  0
   -4.5481    2.6196   -1.7784 H   0  0  0  0  0  0  0  0  0  0  0  0
   -6.3972    3.9405   -0.8453 H   0  0  0  0  0  0  0  0  0  0  0  0
   -6.1668    4.9953    1.3922 H   0  0  0  0  0  0  0  0  0  0  0  0
   -4.0575    4.6900    2.6719 H   0  0  0  0  0  0  0  0  0  0  0  0
   -2.2250    3.3527    1.7421 H   0  0  0  0  0  0  0  0  0  0  0  0
   -2.4043    2.7494   -2.7007 H   0  0  0  0  0  0  0  0  0  0  0  0
   -0.5486    1.3606   -3.5372 H   0  0  0  0  0  0  0  0  0  0  0  0
    1.5172   -1.2229   -1.2142 H   0  0  0  0  0  0  0  0  0  0  0  0
    2.0247   -3.4211   -1.6416 H   0  0  0  0  0  0  0  0  0  0  0  0
    3.6836   -4.9400   -2.6103 H   0  0  0  0  0  0  0  0  0  0  0  0
  1  2  2  0
  2  3  1  0
  3  4  2  0
  4  5  1  0
  5  6  2  0
  6  7  1  0
  7  8  2  0
  8  9  1  0
  9 10  1  0
 10 11  2  0
 11 12  1  0
 12 13  1  0
 13 14  2  0
 14 15  1  0
 15 16  2  0
 16 17  1  0
 17 18  2  0
 12 19  2  0
 19 20  1  0
 20 21  2  0
  9 22  2  0
  4 23  1  0
 23 24  2  0
 24  1  1  0
 22  5  1  0
 21 10  1  0
 18 13  1  0
  1 25  1  0
  2 26  1  0
  3 27  1  0
  6 28  1  0
  7 29  1  0
 11 30  1  0
 14 31  1  0
 15 32  1  0
 16 33  1  0
 17 34  1  0
 18 35  1  0
 19 36  1  0
 20 37  1  0
 22 38  1  0
 23 39  1  0
 24 40  1  0
M  END
$$$$

     RDKit          3D

 40 43  0  0  0  0  0  0  0  0999 V2000
   -2.1716    1.0519   -6.5694 C   0  0  0  0  0  0  0  0  0  0  0  0
   -0.7853    0.9019   -6.5606 C   0  0  0  0  0  0  0  0  0  0  0  0
   -0.0930    0.9147   -5.3636 C   0  0  0  0  0  0  0  0  0  0  0  0
   -0.7600    1.0724   -4.1446 C   0  0  0  0  0  0  0  0  0  0  0  0
   -0.0083    1.0849   -2.8645 C   0  0  0  0  0  0  0  0  0  0  0  0
    1.2345    1.6880   -2.7645 C   0  0  0  0  0  0  0  0  0  0  0  0
    1.8865    1.6507   -1.5437 C   0  0  0  0  0  0  0  0  0  0  0  0
    1.4035    1.0730   -0.4647 N   0  0  0  0  0  0  0  0  0  0  0  0
    0.1994    0.4876   -0.5588 C   0  0  0  0  0  0  0  0  0  0  0  0
   -0.3296   -0.1647    0.6645 C   0  0  0  0  0  0  0  0  0  0  0  0
    0.4667   -0.3076    1.7802 C   0  0  0  0  0  0  0  0  0  0  0  0
   -0.0567   -0.9165    2.9203 C   0  0  0  0  0  0  0  0  0  0  0  0
    0.7771   -1.1095    4.1315 C   0  0  0  0  0  0  0  0  0  0  0  0
    0.2325   -0.9730    5.4158 C   0  0  0  0  0  0  0  0  0  0  0  0
    1.0072   -1.1631    6.5442 C   0  0  0  0  0  0  0  0  0  0  0  0
    2.3516   -1.5060    6.4203 C   0  0  0  0  0  0  0  0  0  0  0  0
    2.9056   -1.6469    5.1515 C   0  0  0  0  0  0  0  0  0  0  0  0
    2.1271   -1.4430    4.0171 C   0  0  0  0  0  0  0  0  0  0  0  0
   -1.3749   -1.3382    2.8819 C   0  0  0  0  0  0  0  0  0  0  0  0
   -2.0895   -1.1555    1.7093 C   0  0  0  0  0  0  0  0  0  0  0  0
   -1.6005   -0.5948    0.6231 N   0  0  0  0  0  0  0  0  0  0  0  0
   -0.5337    0.4830   -1.7257 C   0  0  0  0  0  0  0  0  0  0  0  0
   -2.1454    1.2165   -4.1618 C   0  0  0  0  0  0  0  0  0  0  0  0
   -2.8456    1.2127   -5.3661 C   0  0  0  0  0  0  0  0  0  0  0  0
   -2.7153    1.0445   -7.5072 H   0  0  0  0  0  0  0  0  0  0  0  0
   -0.2474    0.7663   -7.4933 H   0  0  0  0  0  0  0  0  0  0  0  0
    0.9814    0.7964   -5.3640 H   0  0  0  0  0  0  0  0  0  0  0  0
    1.6942    2.1851   -3.6156 H   0  0  0  0  0  0  0  0  0  0  0  0
    2.8637    2.1235   -1.4382 H   0  0  0  0  0  0  0  0  0  0  0  0
    1.4839    0.0629    1.7713 H   0  0  0  0  0  0  0  0  0  0  0  0
   -0.8103   -0.7055    5.5246 H   0  0  0  0  0  0  0  0  0  0  0  0
    0.5640   -1.0389    7.5266 H   0  0  0  0  0  0  0  0  0  0  0  0
    2.9590   -1.6634    7.3036 H   0  0  0  0  0  0  0  0  0  0  0  0
    3.9456   -1.9228    5.0337 H   0  0  0  0  0  0  0  0  0  0  0  0
    2.5716   -1.5573    3.0354 H   0  0  0  0  0  0  0  0  0  0  0  0
   -1.8482   -1.8103    3.7387 H   0  0  0  0  0  0  0  0  0  0  0  0
   -3.1260   -1.4886    1.6518 H   0  0  0  0  0  0  0  0  0  0  0  0
   -1.5050    0.0083   -1.7537 H   0  0  0  0  0  0  0  0  0  0  0  0
   -2.6871    1.3425   -3.2331 H   0  0  0  0  0  0  0  0  0  0  0  0
   -3.9218    1.3386   -5.3525 H   0  0  0  0  0  0  0  0  0  0  0  0
  1  2  2  0
  2  3  1  0
  3  4  2  0
  4  5  1  0
  5  6  2  0
  6  7  1  0
  7  8  2  0
  8  9  1  0
  9 10  1  0
 10 11  2  0
 11 12  1  0
 12 13  1  0
 13 14  2  0
 14 15  1  0
 15 16  2  0
 16 17  1  0
 17 18  2  0
 12 19  2  0
 19 20  1  0
 20 21  2  0
  9 22  2  0
  4 23  1  0
 23 24  2  0
 24  1  1  0
 22  5  1  0
 21 10  1  0
 18 13  1  0
  1 25  1  0
  2 26  1  0
  3 27  1  0
  6 28  1  0
  7 29  1  0
 11 30  1  0
 14 31  1  0
 15 32  1  0
 16 33  1  0
 17 34  1  0
 18 35  1  0
 19 36  1  0
 20 37  1  0
 22 38  1  0
 23 39  1  0
 24 40  1  0
M  END
$$$$

     RDKit          3D

 40 43  0  0  0  0  0  0  0  0999 V2000
    5.5818    1.7496    3.8362 C   0  0  0  0  0  0  0  0  0  0  0  0
    5.4827    0.3605    3.8719 C   0  0  0  0  0  0  0  0  0  0  0  0
    4.3714   -0.2681    3.3419 C   0  0  0  0  0  0  0  0  0  0  0  0
    3.3304    0.4667    2.7620 C   0  0  0  0  0  0  0  0  0  0  0  0
    2.1392   -0.2137    2.1963 C   0  0  0  0  0  0  0  0  0  0  0  0
    1.5991   -1.3411    2.7932 C   0  0  0  0  0  0  0  0  0  0  0  0
    0.4805   -1.9205    2.2177 C   0  0  0  0  0  0  0  0  0  0  0  0
   -0.1088   -1.4732    1.1262 N   0  0  0  0  0  0  0  0  0  0  0  0
    0.4166   -0.3846    0.5445 C   0  0  0  0  0  0  0  0  0  0  0  0
   -0.2485    0.1189   -0.6817 C   0  0  0  0  0  0  0  0  0  0  0  0
   -1.4429   -0.4235   -1.1068 C   0  0  0  0  0  0  0  0  0  0  0  0
   -2.0602    0.0949   -2.2421 C   0  0  0  0  0  0  0  0  0  0  0  0
   -3.3567   -0.4411   -2.7296 C   0  0  0  0  0  0  0  0  0  0  0  0
   -4.3178    0.4089   -3.2921 C   0  0  0  0  0  0  0  0  0  0  0  0
   -5.5211   -0.0811   -3.7613 C   0  0  0  0  0  0  0  0  0  0  0  0
   -5.7967   -1.4455   -3.6898 C   0  0  0  0  0  0  0  0  0  0  0  0
   -4.8525   -2.3021   -3.1392 C   0  0  0  0  0  0  0  0  0  0  0  0
   -3.6450   -1.8030   -2.6536 C   0  0  0  0  0  0  0  0  0  0  0  0
   -1.4300    1.1370   -2.9022 C   0  0  0  0  0  0  0  0  0  0  0  0
   -0.2219    1.5984   -2.4078 C   0  0  0  0  0  0  0  0  0  0  0  0
    0.3674    1.1190   -1.3347 N   0  0  0  0  0  0  0  0  0  0  0  0
    1.5224    0.2699    1.0461 C   0  0  0  0  0  0  0  0  0  0  0  0
    3.4383    1.8554    2.7287 C   0  0  0  0  0  0  0  0  0  0  0  0
    4.5535    2.4917    3.2659 C   0  0  0  0  0  0  0  0  0  0  0  0
    6.4501    2.2470    4.2481 H   0  0  0  0  0  0  0  0  0  0  0  0
    6.2793   -0.2290    4.3116 H   0  0  0  0  0  0  0  0  0  0  0  0
    4.3010   -1.3469    3.3738 H   0  0  0  0  0  0  0  0  0  0  0  0
    2.0251   -1.7655    3.6988 H   0  0  0  0  0  0  0  0  0  0  0  0
    0.0318   -2.7980    2.6809 H   0  0  0  0  0  0  0  0  0  0  0  0
   -1.8970   -1.2340   -0.5470 H   0  0  0  0  0  0  0  0  0  0  0  0
   -4.1124    1.4701   -3.3508 H   0  0  0  0  0  0  0  0  0  0  0  0
   -6.2514    0.6020   -4.1820 H   0  0  0  0  0  0  0  0  0  0  0  0
   -6.7403   -1.8327   -4.0578 H   0  0  0  0  0  0  0  0  0  0  0  0
   -5.0436   -3.3663   -3.0876 H   0  0  0  0  0  0  0  0  0  0  0  0
   -2.9186   -2.4871   -2.2331 H   0  0  0  0  0  0  0  0  0  0  0  0
   -1.8630    1.5889   -3.7916 H   0  0  0  0  0  0  0  0  0  0  0  0
    0.2955    2.4104   -2.9233 H   0  0  0  0  0  0  0  0  0  0  0  0
    1.9025    1.1458    0.5410 H   0  0  0  0  0  0  0  0  0  0  0  0
    2.6472    2.4484    2.2916 H   0  0  0  0  0  0  0  0  0  0  0  0
    4.6122    3.5732    3.2373 H   0  0  0  0  0  0  0  0  0  0  0  0
  1  2  2  0
  2  3  1  0
  3  4  2  0
  4  5  1  0
  5  6  2  0
  6  7  1  0
  7  8  2  0
  8  9  1  0
  9 10  1  0
 10 11  2  0
 11 12  1  0
 12 13  1  0
 13 14  2  0
 14 15  1  0
 15 16  2  0
 16 17  1  0
 17 18  2  0
 12 19  2  0
 19 20  1  0
 20 21  2  0
  9 22  2  0
  4 23  1  0
 23 24  2  0
 24  1  1  0
 22  5  1  0
 21 10  1  0
 18 13  1  0
  1 25  1  0
  2 26  1  0
  3 27  1  0
  6 28  1  0
  7 29  1  0
 11 30  1  0
 14 31  1  0
 15 32  1  0
 16 33  1  0
 17 34  1  0
 18 35  1  0
 19 36  1  0
 20 37  1  0
 22 38  1  0
 23 39  1  0
 24 40  1  0
M  END
$$$$

     RDKit          3D

 40 43  0  0  0  0  0  0  0  0999 V2000
   -3.2813   -4.6431   -4.0608 C   0  0  0  0  0  0  0  0  0  0  0  0
   -2.3869   -3.9628   -4.8835 C   0  0  0  0  0  0  0  0  0  0  0  0
   -1.6878   -2.8758   -4.3945 C   0  0  0  0  0  0  0  0  0  0  0  0
   -1.8607   -2.4357   -3.0750 C   0  0  0  0  0  0  0  0  0  0  0  0
   -1.1108   -1.2653   -2.5584 C   0  0  0  0  0  0  0  0  0  0  0  0
   -0.8577   -0.1660   -3.3622 C   0  0  0  0  0  0  0  0  0  0  0  0
   -0.1819    0.9086   -2.8114 C   0  0  0  0  0  0  0  0  0  0  0  0
    0.2418    0.9549   -1.5657 N   0  0  0  0  0  0  0  0  0  0  0  0
    0.0137   -0.1150   -0.7907 C   0  0  0  0  0  0  0  0  0  0  0  0
    0.5079   -0.0520    0.6070 C   0  0  0  0  0  0  0  0  0  0  0  0
    0.9173    1.1480    1.1498 C   0  0  0  0  0  0  0  0  0  0  0  0
    1.3614    1.1849    2.4690 C   0  0  0  0  0  0  0  0  0  0  0  0
    1.7835    2.4608    3.0998 C   0  0  0  0  0  0  0  0  0  0  0  0
    1.5312    2.7092    4.4542 C   0  0  0  0  0  0  0  0  0  0  0  0
    1.9258    3.8911    5.0501 C   0  0  0  0  0  0  0  0  0  0  0  0
    2.5933    4.8620    4.3051 C   0  0  0  0  0  0  0  0  0  0  0  0
    2.8516    4.6289    2.9606 C   0  0  0  0  0  0  0  0  0  0  0  0
    2.4475    3.4384    2.3609 C   0  0  0  0  0  0  0  0  0  0  0  0
    1.3864   -0.0070    3.1744 C   0  0  0  0  0  0  0  0  0  0  0  0
    0.9676   -1.1615    2.5361 C   0  0  0  0  0  0  0  0  0  0  0  0
    0.5292   -1.2040    1.2941 N   0  0  0  0  0  0  0  0  0  0  0  0
   -0.6488   -1.2351   -1.2453 C   0  0  0  0  0  0  0  0  0  0  0  0
   -2.7590   -3.1188   -2.2592 C   0  0  0  0  0  0  0  0  0  0  0  0
   -3.4672   -4.2101   -2.7508 C   0  0  0  0  0  0  0  0  0  0  0  0
   -3.8319   -5.4948   -4.4375 H   0  0  0  0  0  0  0  0  0  0  0  0
   -2.2310   -4.2899   -5.9061 H   0  0  0  0  0  0  0  0  0  0  0  0
   -0.9924   -2.3534   -5.0372 H   0  0  0  0  0  0  0  0  0  0  0  0
   -1.1839   -0.1299   -4.3982 H   0  0  0  0  0  0  0  0  0  0  0  0
    0.0200    1.7872   -3.4230 H   0  0  0  0  0  0  0  0  0  0  0  0
    0.8769    2.0506    0.5524 H   0  0  0  0  0  0  0  0  0  0  0  0
    1.0129    1.9636    5.0432 H   0  0  0  0  0  0  0  0  0  0  0  0
    1.7084    4.0619    6.0985 H   0  0  0  0  0  0  0  0  0  0  0  0
    2.9050    5.7900    4.7691 H   0  0  0  0  0  0  0  0  0  0  0  0
    3.3745    5.3710    2.3700 H   0  0  0  0  0  0  0  0  0  0  0  0
    2.6743    3.2675    1.3170 H   0  0  0  0  0  0  0  0  0  0  0  0
    1.7365   -0.0524    4.2013 H   0  0  0  0  0  0  0  0  0  0  0  0
    0.9910   -2.1093    3.0726 H   0  0  0  0  0  0  0  0  0  0  0  0
   -0.7895   -2.0824   -0.5867 H   0  0  0  0  0  0  0  0  0  0  0  0
   -2.9134   -2.7979   -1.2359 H   0  0  0  0  0  0  0  0  0  0  0  0
   -4.1732   -4.7165   -2.1031 H   0  0  0  0  0  0  0  0  0  0  0  0
  1  2  2  0
  2  3  1  0
  3  4  2  0
  4  5  1  0
  5  6  2  0
  6  7  1  0
  7  8  2  0
  8  9  1  0
  9 10  1  0
 10 11  2  0
 11 12  1  0
 12 13  1  0
 13 14  2  0
 14 15  1  0
 15 16  2  0
 16 17  1  0
 17 18  2  0
 12 19  2  0
 19 20  1  0
 20 21  2  0
  9 22  2  0
  4 23  1  0
 23 24  2  0
 24  1  1  0
 22  5  1  0
 21 10  1  0
 18 13  1  0
  1 25  1  0
  2 26  1  0
  3 27  1  0
  6 28  1  0
  7 29  1  0
 11 30  1  0
 14 31  1  0
 15 32  1  0
 16 33  1  0
 17 34  1  0
 18 35  1  0
 19 36  1  0
 20 37  1  0
 22 38  1  0
 23 39  1  0
 24 40  1  0
M  END
$$$$

     RDKit          3D

 40 43  0  0  0  0  0  0  0  0999 V2000
    0.0350    3.1565    6.2307 C   0  0  0  0  0  0  0  0  0  0  0  0
   -0.9796    3.6958    5.4403 C   0  0  0  0  0  0  0  0  0  0  0  0
   -1.0338    3.4144    4.0877 C   0  0  0  0  0  0  0  0  0  0  0  0
   -0.0830    2.5852    3.4842 C   0  0  0  0  0  0  0  0  0  0  0  0
   -0.1457    2.2849    2.0312 C   0  0  0  0  0  0  0  0  0  0  0  0
   -0.5764    3.2332    1.1183 C   0  0  0  0  0  0  0  0  0  0  0  0
   -0.6329    2.8820   -0.2193 C   0  0  0  0  0  0  0  0  0  0  0  0
   -0.3077    1.6968   -0.6895 N   0  0  0  0  0  0  0  0  0  0  0  0
    0.1216    0.7778    0.1908 C   0  0  0  0  0  0  0  0  0  0  0  0
    0.4937   -0.5493   -0.3592 C   0  0  0  0  0  0  0  0  0  0  0  0
    0.0535   -0.9289   -1.6083 C   0  0  0  0  0  0  0  0  0  0  0  0
    0.4365   -2.1669   -2.1144 C   0  0  0  0  0  0  0  0  0  0  0  0
   -0.0183   -2.6181   -3.4540 C   0  0  0  0  0  0  0  0  0  0  0  0
   -1.3178   -2.3483   -3.8966 C   0  0  0  0  0  0  0  0  0  0  0  0
   -1.7415   -2.7822   -5.1410 C   0  0  0  0  0  0  0  0  0  0  0  0
   -0.8742   -3.4866   -5.9793 C   0  0  0  0  0  0  0  0  0  0  0  0
    0.4207   -3.7554   -5.5476 C   0  0  0  0  0  0  0  0  0  0  0  0
    0.8394   -3.3276   -4.2961 C   0  0  0  0  0  0  0  0  0  0  0  0
    1.2573   -2.9657   -1.3372 C   0  0  0  0  0  0  0  0  0  0  0  0
    1.6330   -2.4999   -0.0894 C   0  0  0  0  0  0  0  0  0  0  0  0
    1.2686   -1.3342    0.4034 N   0  0  0  0  0  0  0  0  0  0  0  0
    0.2221    1.0336    1.5419 C   0  0  0  0  0  0  0  0  0  0  0  0
    0.9235    2.0464    4.2833 C   0  0  0  0  0  0  0  0  0  0  0  0
    0.9851    2.3311    5.6440 C   0  0  0  0  0  0  0  0  0  0  0  0
    0.0824    3.3792    7.2891 H   0  0  0  0  0  0  0  0  0  0  0  0
   -1.7352    4.3329    5.8881 H   0  0  0  0  0  0  0  0  0  0  0  0
   -1.8251    3.8400    3.4853 H   0  0  0  0  0  0  0  0  0  0  0  0
   -0.8610    4.2371    1.4269 H   0  0  0  0  0  0  0  0  0  0  0  0
   -0.9620    3.6175   -0.9552 H   0  0  0  0  0  0  0  0  0  0  0  0
   -0.5724   -0.2611   -2.1878 H   0  0  0  0  0  0  0  0  0  0  0  0
   -2.0017   -1.8018   -3.2551 H   0  0  0  0  0  0  0  0  0  0  0  0
   -2.7567   -2.5750   -5.4569 H   0  0  0  0  0  0  0  0  0  0  0  0
   -1.2086   -3.8215   -6.9538 H   0  0  0  0  0  0  0  0  0  0  0  0
    1.1123   -4.2954   -6.1886 H   0  0  0  0  0  0  0  0  0  0  0  0
    1.8515   -3.5441   -3.9771 H   0  0  0  0  0  0  0  0  0  0  0  0
    1.5966   -3.9393   -1.6807 H   0  0  0  0  0  0  0  0  0  0  0  0
    2.2698   -3.1151    0.5476 H   0  0  0  0  0  0  0  0  0  0  0  0
    0.5708    0.2579    2.2133 H   0  0  0  0  0  0  0  0  0  0  0  0
    1.6800    1.4110    3.8428 H   0  0  0  0  0  0  0  0  0  0  0  0
    1.7803    1.9031    6.2383 H   0  0  0  0  0  0  0  0  0  0  0  0
  1  2  2  0
  2  3  1  0
  3  4  2  0
  4  5  1  0
  5  6  2  0
  6  7  1  0
  7  8  2  0
  8  9  1  0
  9 10  1  0
 10 11  2  0
 11 12  1  0
 12 13  1  0
 13 14  2  0
 14 15  1  0
 15 16  2  0
 16 17  1  0
 17 18  2  0
 12 19  2  0
 19 20  1  0
 20 21  2  0
  9 22  2  0
  4 23  1  0
 23 24  2  0
 24  1  1  0
 22  5  1  0
 21 10  1  0
 18 13  1  0
  1 25  1  0
  2 26  1  0
  3 27  1  0
  6 28  1  0
  7 29  1  0
 11 30  1  0
 14 31  1  0
 15 32  1  0
 16 33  1  0
 17 34  1  0
 18 35  1  0
 19 36  1  0
 20 37  1  0
 22 38  1  0
 23 39  1  0
 24 40  1  0
M  END
$$$$

     RDKit          3D

 40 43  0  0  0  0  0  0  0  0999 V2000
    5.5471   -3.1631    2.8176 C   0  0  0  0  0  0  0  0  0  0  0  0
    5.1801   -2.1490    3.6976 C   0  0  0  0  0  0  0  0  0  0  0  0
    4.1987   -1.2436    3.3416 C   0  0  0  0  0  0  0  0  0  0  0  0
    3.5553   -1.3235    2.0998 C   0  0  0  0  0  0  0  0  0  0  0  0
    2.5137   -0.3399    1.7212 C   0  0  0  0  0  0  0  0  0  0  0  0
    2.6439    1.0021    2.0408 C   0  0  0  0  0  0  0  0  0  0  0  0
    1.6519    1.8753    1.6287 C   0  0  0  0  0  0  0  0  0  0  0  0
    0.5793    1.5122    0.9551 N   0  0  0  0  0  0  0  0  0  0  0  0
    0.4390    0.2102    0.6651 C   0  0  0  0  0  0  0  0  0  0  0  0
   -0.7869   -0.1876   -0.0658 C   0  0  0  0  0  0  0  0  0  0  0  0
   -1.5253    0.7483   -0.7597 C   0  0  0  0  0  0  0  0  0  0  0  0
   -2.6708    0.3463   -1.4403 C   0  0  0  0  0  0  0  0  0  0  0  0
   -3.4899    1.3196   -2.2058 C   0  0  0  0  0  0  0  0  0  0  0  0
   -4.1302    0.9451   -3.3929 C   0  0  0  0  0  0  0  0  0  0  0  0
   -4.9114    1.8398   -4.0968 C   0  0  0  0  0  0  0  0  0  0  0  0
   -5.0778    3.1415   -3.6295 C   0  0  0  0  0  0  0  0  0  0  0  0
   -4.4460    3.5294   -2.4561 C   0  0  0  0  0  0  0  0  0  0  0  0
   -3.6522    2.6267   -1.7539 C   0  0  0  0  0  0  0  0  0  0  0  0
   -3.0205   -0.9911   -1.3805 C   0  0  0  0  0  0  0  0  0  0  0  0
   -2.2222   -1.8506   -0.6453 C   0  0  0  0  0  0  0  0  0  0  0  0
   -1.1298   -1.4843   -0.0089 N   0  0  0  0  0  0  0  0  0  0  0  0
    1.3750   -0.7377    1.0259 C   0  0  0  0  0  0  0  0  0  0  0  0
    3.9230   -2.3452    1.2274 C   0  0  0  0  0  0  0  0  0  0  0  0
    4.9158   -3.2512    1.5791 C   0  0  0  0  0  0  0  0  0  0  0  0
    6.3184   -3.8723    3.0896 H   0  0  0  0  0  0  0  0  0  0  0  0
    5.6581   -2.0703    4.6676 H   0  0  0  0  0  0  0  0  0  0  0  0
    3.9156   -0.4593    4.0305 H   0  0  0  0  0  0  0  0  0  0  0  0
    3.5041    1.3765    2.5899 H   0  0  0  0  0  0  0  0  0  0  0  0
    1.7371    2.9385    1.8589 H   0  0  0  0  0  0  0  0  0  0  0  0
   -1.2026    1.7823   -0.7863 H   0  0  0  0  0  0  0  0  0  0  0  0
   -4.0062   -0.0609   -3.7666 H   0  0  0  0  0  0  0  0  0  0  0  0
   -5.3926    1.5277   -5.0176 H   0  0  0  0  0  0  0  0  0  0  0  0
   -5.6949    3.8439   -4.1791 H   0  0  0  0  0  0  0  0  0  0  0  0
   -4.5730    4.5333   -2.0751 H   0  0  0  0  0  0  0  0  0  0  0  0
   -3.1753    2.9419   -0.8331 H   0  0  0  0  0  0  0  0  0  0  0  0
   -3.9028   -1.3711   -1.8883 H   0  0  0  0  0  0  0  0  0  0  0  0
   -2.4949   -2.9039   -0.5706 H   0  0  0  0  0  0  0  0  0  0  0  0
    1.2162   -1.7796    0.7763 H   0  0  0  0  0  0  0  0  0  0  0  0
    3.4342   -2.4338    0.2646 H   0  0  0  0  0  0  0  0  0  0  0  0
    5.1990   -4.0226    0.8751 H   0  0  0  0  0  0  0  0  0  0  0  0
  1  2  2  0
  2  3  1  0
  3  4  2  0
  4  5  1  0
  5  6  2  0
  6  7  1  0
  7  8  2  0
  8  9  1  0
  9 10  1  0
 10 11  2  0
 11 12  1  0
 12 13  1  0
 13 14  2  0
 14 15  1  0
 15 16  2  0
 16 17  1  0
 17 18  2  0
 12 19  2  0
 19 20  1  0
 20 21  2  0
  9 22  2  0
  4 23  1  0
 23 24  2  0
 24  1  1  0
 22  5  1  0
 21 10  1  0
 18 13  1  0
  1 25  1  0
  2 26  1  0
  3 27  1  0
  6 28  1  0
  7 29  1  0
 11 30  1  0
 14 31  1  0
 15 32  1  0
 16 33  1  0
 17 34  1  0
 18 35  1  0
 19 36  1  0
 20 37  1  0
 22 38  1  0
 23 39  1  0
 24 40  1  0
M  END
$$$$

     RDKit          3D

 40 43  0  0  0  0  0  0  0  0999 V2000
   -4.4912   -5.3563   -0.5229 C   0  0  0  0  0  0  0  0  0  0  0  0
   -4.3994   -4.7459   -1.7729 C   0  0  0  0  0  0  0  0  0  0  0  0
   -3.4427   -3.7793   -2.0030 C   0  0  0  0  0  0  0  0  0  0  0  0
   -2.5538   -3.3861   -0.9968 C   0  0  0  0  0  0  0  0  0  0  0  0
   -1.5291   -2.3458   -1.2557 C   0  0  0  0  0  0  0  0  0  0  0  0
   -0.8822   -2.2602   -2.4787 C   0  0  0  0  0  0  0  0  0  0  0  0
    0.0655   -1.2660   -2.6559 C   0  0  0  0  0  0  0  0  0  0  0  0
    0.3967   -0.3848   -1.7358 N   0  0  0  0  0  0  0  0  0  0  0  0
   -0.2332   -0.4595   -0.5503 C   0  0  0  0  0  0  0  0  0  0  0  0
    0.1402    0.5467    0.4754 C   0  0  0  0  0  0  0  0  0  0  0  0
    1.1500    1.4544    0.2340 C   0  0  0  0  0  0  0  0  0  0  0  0
    1.4785    2.3869    1.2147 C   0  0  0  0  0  0  0  0  0  0  0  0
    2.5709    3.3723    1.0035 C   0  0  0  0  0  0  0  0  0  0  0  0
    2.4835    4.6637    1.5360 C   0  0  0  0  0  0  0  0  0  0  0  0
    3.4971    5.5832    1.3518 C   0  0  0  0  0  0  0  0  0  0  0  0
    4.6360    5.2323    0.6305 C   0  0  0  0  0  0  0  0  0  0  0  0
    4.7392    3.9542    0.0978 C   0  0  0  0  0  0  0  0  0  0  0  0
    3.7134    3.0317    0.2782 C   0  0  0  0  0  0  0  0  0  0  0  0
    0.7589    2.3618    2.3968 C   0  0  0  0  0  0  0  0  0  0  0  0
   -0.2364    1.4117    2.5427 C   0  0  0  0  0  0  0  0  0  0  0  0
   -0.5512    0.5242    1.6255 N   0  0  0  0  0  0  0  0  0  0  0  0
   -1.1875   -1.4188   -0.2751 C   0  0  0  0  0  0  0  0  0  0  0  0
   -2.6547   -3.9996    0.2533 C   0  0  0  0  0  0  0  0  0  0  0  0
   -3.6127   -4.9797    0.4849 C   0  0  0  0  0  0  0  0  0  0  0  0
   -5.2409   -6.1157   -0.3400 H   0  0  0  0  0  0  0  0  0  0  0  0
   -5.0866   -5.0169   -2.5672 H   0  0  0  0  0  0  0  0  0  0  0  0
   -3.3843   -3.3076   -2.9768 H   0  0  0  0  0  0  0  0  0  0  0  0
   -1.0969   -2.9594   -3.2843 H   0  0  0  0  0  0  0  0  0  0  0  0
    0.5860   -1.1836   -3.6112 H   0  0  0  0  0  0  0  0  0  0  0  0
    1.6653    1.4453   -0.7178 H   0  0  0  0  0  0  0  0  0  0  0  0
    1.5997    4.9494    2.0929 H   0  0  0  0  0  0  0  0  0  0  0  0
    3.3954    6.5802    1.7646 H   0  0  0  0  0  0  0  0  0  0  0  0
    5.4345    5.9495    0.4879 H   0  0  0  0  0  0  0  0  0  0  0  0
    5.6201    3.6609   -0.4573 H   0  0  0  0  0  0  0  0  0  0  0  0
    3.8159    2.0408   -0.1435 H   0  0  0  0  0  0  0  0  0  0  0  0
    0.9637    3.0570    3.2074 H   0  0  0  0  0  0  0  0  0  0  0  0
   -0.8133    1.3733    3.4664 H   0  0  0  0  0  0  0  0  0  0  0  0
   -1.6764   -1.4365    0.6919 H   0  0  0  0  0  0  0  0  0  0  0  0
   -1.9734   -3.7284    1.0494 H   0  0  0  0  0  0  0  0  0  0  0  0
   -3.6647   -5.4495    1.4597 H   0  0  0  0  0  0  0  0  0  0  0  0
  1  2  2  0
  2  3  1  0
  3  4  2  0
  4  5  1  0
  5  6  2  0
  6  7  1  0
  7  8  2  0
  8  9  1  0
  9 10  1  0
 10 11  2  0
 11 12  1  0
 12 13  1  0
 13 14  2  0
 14 15  1  0
 15 16  2  0
 16 17  1  0
 17 18  2  0
 12 19  2  0
 19 20  1  0
 20 21  2  0
  9 22  2  0
  4 23  1  0
 23 24  2  0
 24  1  1  0
 22  5  1  0
 21 10  1  0
 18 13  1  0
  1 25  1  0
  2 26  1  0
  3 27  1  0
  6 28  1  0
  7 29  1  0
 11 30  1  0
 14 31  1  0
 15 32  1  0
 16 33  1  0
 17 34  1  0
 18 35  1  0
 19 36  1  0
 20 37  1  0
 22 38  1  0
 23 39  1  0
 24 40  1  0
M  END
$$$$
