
     RDKit          3D

 44 45  0  0  0  0  0  0  0  0999 V2000
   -3.5426   -1.9855   -2.2276 C   0  0  0  0  0  0  0  0  0  0  0  0
   -3.5864   -0.4843   -2.4987 C   0  0  0  0  0  0  0  0  0  0  0  0
   -3.5229   -0.2627   -4.0170 C   0  0  0  0  0  0  0  0  0  0  0  0
   -4.9161    0.0654   -1.9708 C   0  0  0  0  0  0  0  0  0  0  0  0
   -2.4264    0.2392   -1.8283 C   0  0  0  0  0  0  0  0  0  0  0  0
   -2.2825    1.6159   -1.9847 C   0  0  0  0  0  0  0  0  0  0  0  0
   -1.2103    2.2619   -1.3679 C   0  0  0  0  0  0  0  0  0  0  0  0
   -0.3115    1.6491   -0.6229 N   0  0  0  0  0  0  0  0  0  0  0  0
   -0.4439    0.3191   -0.4723 C   0  0  0  0  0  0  0  0  0  0  0  0
    0.5725   -0.3741    0.3628 C   0  0  0  0  0  0  0  0  0  0  0  0
    1.5418    0.3480    1.0335 C   0  0  0  0  0  0  0  0  0  0  0  0
    2.4791   -0.3070    1.8248 C   0  0  0  0  0  0  0  0  0  0  0  0
    3.5485    0.4898    2.5579 C   0  0  0  0  0  0  0  0  0  0  0  0
    2.8761    1.5068    3.4831 C   0  0  0  0  0  0  0  0  0  0  0  0
    4.4504   -0.4093    3.4053 C   0  0  0  0  0  0  0  0  0  0  0  0
    4.4166    1.2192    1.5276 C   0  0  0  0  0  0  0  0  0  0  0  0
    2.3892   -1.6889    1.8952 C   0  0  0  0  0  0  0  0  0  0  0  0
    1.3823   -2.3382    1.1798 C   0  0  0  0  0  0  0  0  0  0  0  0
    0.4907   -1.7146    0.4315 N   0  0  0  0  0  0  0  0  0  0  0  0
   -1.4726   -0.4056   -1.0564 C   0  0  0  0  0  0  0  0  0  0  0  0
   -2.6343   -2.4362   -2.6155 H   0  0  0  0  0  0  0  0  0  0  0  0
   -4.3938   -2.4717   -2.7268 H   0  0  0  0  0  0  0  0  0  0  0  0
   -3.6204   -2.2051   -1.1654 H   0  0  0  0  0  0  0  0  0  0  0  0
   -2.5753   -0.6275   -4.4203 H   0  0  0  0  0  0  0  0  0  0  0  0
   -3.6318    0.7850   -4.2790 H   0  0  0  0  0  0  0  0  0  0  0  0
   -4.3402   -0.8029   -4.5049 H   0  0  0  0  0  0  0  0  0  0  0  0
   -5.0280    1.1281   -2.1769 H   0  0  0  0  0  0  0  0  0  0  0  0
   -5.7488   -0.4470   -2.4617 H   0  0  0  0  0  0  0  0  0  0  0  0
   -5.0007   -0.0896   -0.8952 H   0  0  0  0  0  0  0  0  0  0  0  0
   -2.9811    2.1928   -2.5782 H   0  0  0  0  0  0  0  0  0  0  0  0
   -1.0852    3.3358   -1.4857 H   0  0  0  0  0  0  0  0  0  0  0  0
    1.5691    1.4229    0.9373 H   0  0  0  0  0  0  0  0  0  0  0  0
    3.6477    2.0706    4.0259 H   0  0  0  0  0  0  0  0  0  0  0  0
    2.2699    2.2224    2.9290 H   0  0  0  0  0  0  0  0  0  0  0  0
    2.2477    1.0095    4.2199 H   0  0  0  0  0  0  0  0  0  0  0  0
    4.9871   -1.1295    2.7958 H   0  0  0  0  0  0  0  0  0  0  0  0
    5.2003    0.1926    3.9291 H   0  0  0  0  0  0  0  0  0  0  0  0
    3.8841   -0.9451    4.1590 H   0  0  0  0  0  0  0  0  0  0  0  0
    3.8401    1.9327    0.9357 H   0  0  0  0  0  0  0  0  0  0  0  0
    5.2078    1.7781    2.0484 H   0  0  0  0  0  0  0  0  0  0  0  0
    4.8934    0.5159    0.8526 H   0  0  0  0  0  0  0  0  0  0  0  0
    3.0705   -2.2846    2.4894 H   0  0  0  0  0  0  0  0  0  0  0  0
    1.2986   -3.4195    1.2292 H   0  0  0  0  0  0  0  0  0  0  0  0
   -1.5086   -1.4722   -0.8969 H   0  0  0  0  0  0  0  0  0  0  0  0
  1  2  1  0
  2  3  1  0
  2  4  1  0
  2  5  1  0
  5  6  2  0
  6  7  1  0
  7  8  2  0
  8  9  1  0
  9 10  1  0
 10 11  2  0
 11 12  1  0
 12 13  1  0
 13 14  1  0
 13 15  1  0
 13 16  1  0
 12 17  2  0
 17 18  1  0
 18 19  2  0
  9 20  2  0
 20  5  1  0
 19 10  1  0
  1 21  1  0
  1 22  1  0
  1 23  1  0
  3 24  1  0
  3 25  1  0
  3 26  1  0
  4 27  1  0
  4 28  1  0
  4 29  1  0
  6 30  1  0
  7 31  1  0
 11 32  1  0
 14 33  1  0
 14 34  1  0
 14 35  1  0
 15 36  1  0
 15 37  1  0
 15 38  1  0
 16 39  1  0
 16 40  1  0
 16 41  1  0
 17 42  1  0
 18 43  1  0
 20 44  1  0
M  END
$$$$

     RDKit          3D

 44 45  0  0  0  0  0  0  0  0999 V2000
   -4.6106    0.3108   -0.3450 C   0  0  0  0  0  0  0  0  0  0  0  0
   -4.0631   -0.0888   -1.7117 C   0  0  0  0  0  0  0  0  0  0  0  0
   -4.4668    0.9839   -2.7290 C   0  0  0  0  0  0  0  0  0  0  0  0
   -4.6913   -1.4291   -2.1202 C   0  0  0  0  0  0  0  0  0  0  0  0
   -2.5486   -0.2326   -1.6857 C   0  0  0  0  0  0  0  0  0  0  0  0
   -1.8657   -0.5612   -2.8537 C   0  0  0  0  0  0  0  0  0  0  0  0
   -0.4785   -0.6980   -2.8124 C   0  0  0  0  0  0  0  0  0  0  0  0
    0.2496   -0.5263   -1.7255 N   0  0  0  0  0  0  0  0  0  0  0  0
   -0.4093   -0.2105   -0.5944 C   0  0  0  0  0  0  0  0  0  0  0  0
    0.4047   -0.0155    0.6362 C   0  0  0  0  0  0  0  0  0  0  0  0
    1.7861    0.0281    0.5537 C   0  0  0  0  0  0  0  0  0  0  0  0
    2.5453    0.1852    1.7029 C   0  0  0  0  0  0  0  0  0  0  0  0
    4.0670    0.1978    1.6949 C   0  0  0  0  0  0  0  0  0  0  0  0
    4.5914    1.4145    2.4677 C   0  0  0  0  0  0  0  0  0  0  0  0
    4.6139    0.2619    0.2717 C   0  0  0  0  0  0  0  0  0  0  0  0
    4.5841   -1.0833    2.3653 C   0  0  0  0  0  0  0  0  0  0  0  0
    1.8541    0.3183    2.9044 C   0  0  0  0  0  0  0  0  0  0  0  0
    0.4597    0.2854    2.8901 C   0  0  0  0  0  0  0  0  0  0  0  0
   -0.2629    0.1184    1.7966 N   0  0  0  0  0  0  0  0  0  0  0  0
   -1.7863   -0.0622   -0.5410 C   0  0  0  0  0  0  0  0  0  0  0  0
   -4.2325    1.2795   -0.0250 H   0  0  0  0  0  0  0  0  0  0  0  0
   -4.3707   -0.4296    0.4106 H   0  0  0  0  0  0  0  0  0  0  0  0
   -5.7074    0.3850   -0.3979 H   0  0  0  0  0  0  0  0  0  0  0  0
   -4.1494    0.7298   -3.7382 H   0  0  0  0  0  0  0  0  0  0  0  0
   -5.5559    1.0847   -2.7530 H   0  0  0  0  0  0  0  0  0  0  0  0
   -4.0394    1.9502   -2.4654 H   0  0  0  0  0  0  0  0  0  0  0  0
   -4.4296   -2.2157   -1.4092 H   0  0  0  0  0  0  0  0  0  0  0  0
   -5.7801   -1.3369   -2.1459 H   0  0  0  0  0  0  0  0  0  0  0  0
   -4.3705   -1.7404   -3.1104 H   0  0  0  0  0  0  0  0  0  0  0  0
   -2.3851   -0.7093   -3.7919 H   0  0  0  0  0  0  0  0  0  0  0  0
    0.0624   -0.9564   -3.7228 H   0  0  0  0  0  0  0  0  0  0  0  0
    2.2510   -0.0492   -0.4160 H   0  0  0  0  0  0  0  0  0  0  0  0
    4.1971    2.3395    2.0535 H   0  0  0  0  0  0  0  0  0  0  0  0
    5.6837    1.4480    2.4113 H   0  0  0  0  0  0  0  0  0  0  0  0
    4.3302    1.3691    3.5234 H   0  0  0  0  0  0  0  0  0  0  0  0
    5.7115    0.3151    0.3049 H   0  0  0  0  0  0  0  0  0  0  0  0
    4.3499   -0.6251   -0.2981 H   0  0  0  0  0  0  0  0  0  0  0  0
    4.2555    1.1424   -0.2558 H   0  0  0  0  0  0  0  0  0  0  0  0
    4.2460   -1.9664    1.8164 H   0  0  0  0  0  0  0  0  0  0  0  0
    4.2384   -1.1670    3.3934 H   0  0  0  0  0  0  0  0  0  0  0  0
    5.6771   -1.0837    2.3801 H   0  0  0  0  0  0  0  0  0  0  0  0
    2.3735    0.4499    3.8449 H   0  0  0  0  0  0  0  0  0  0  0  0
   -0.0917    0.4018    3.8195 H   0  0  0  0  0  0  0  0  0  0  0  0
   -2.2371    0.1879    0.4068 H   0  0  0  0  0  0  0  0  0  0  0  0
  1  2  1  0
  2  3  1  0
  2  4  1  0
  2  5  1  0
  5  6  2  0
  6  7  1  0
  7  8  2  0
  8  9  1  0
  9 10  1  0
 10 11  2  0
 11 12  1  0
 12 13  1  0
 13 14  1  0
 13 15  1  0
 13 16  1  0
 12 17  2  0
 17 18  1  0
 18 19  2  0
  9 20  2  0
 20  5  1  0
 19 10  1  0
  1 21  1  0
  1 22  1  0
  1 23  1  0
  3 24  1  0
  3 25  1  0
  3 26  1  0
  4 27  1  0
  4 28  1  0
  4 29  1  0
  6 30  1  0
  7 31  1  0
 11 32  1  0
 14 33  1  0
 14 34  1  0
 14 35  1  0
 15 36  1  0
 15 37  1  0
 15 38  1  0
 16 39  1  0
 16 40  1  0
 16 41  1  0
 17 42  1  0
 18 43  1  0
 20 44  1  0
M  END
$$$$

     RDKit          3D

 44 45  0  0  0  0  0  0  0  0999 V2000
    0.2851    3.4913   -3.2355 C   0  0  0  0  0  0  0  0  0  0  0  0
   -0.4005    3.9306   -1.9366 C   0  0  0  0  0  0  0  0  0  0  0  0
   -1.9194    3.8849   -2.1231 C   0  0  0  0  0  0  0  0  0  0  0  0
    0.0105    5.3757   -1.6414 C   0  0  0  0  0  0  0  0  0  0  0  0
   -0.0020    2.9856   -0.8133 C   0  0  0  0  0  0  0  0  0  0  0  0
    0.6073    3.4192    0.3549 C   0  0  0  0  0  0  0  0  0  0  0  0
    0.9408    2.4820    1.3328 C   0  0  0  0  0  0  0  0  0  0  0  0
    0.7145    1.1876    1.2206 N   0  0  0  0  0  0  0  0  0  0  0  0
    0.1203    0.7602    0.0933 C   0  0  0  0  0  0  0  0  0  0  0  0
   -0.1299   -0.7007   -0.0306 C   0  0  0  0  0  0  0  0  0  0  0  0
    0.2417   -1.5596    0.9917 C   0  0  0  0  0  0  0  0  0  0  0  0
    0.0162   -2.9204    0.8664 C   0  0  0  0  0  0  0  0  0  0  0  0
    0.4036   -3.9320    1.9347 C   0  0  0  0  0  0  0  0  0  0  0  0
    1.0243   -3.2547    3.1520 C   0  0  0  0  0  0  0  0  0  0  0  0
   -0.8419   -4.7034    2.3882 C   0  0  0  0  0  0  0  0  0  0  0  0
    1.4269   -4.9166    1.3539 C   0  0  0  0  0  0  0  0  0  0  0  0
   -0.5912   -3.3572   -0.3079 C   0  0  0  0  0  0  0  0  0  0  0  0
   -0.9333   -2.4216   -1.2826 C   0  0  0  0  0  0  0  0  0  0  0  0
   -0.7184   -1.1252   -1.1643 N   0  0  0  0  0  0  0  0  0  0  0  0
   -0.2436    1.6212   -0.9271 C   0  0  0  0  0  0  0  0  0  0  0  0
    1.3658    3.4873   -3.1239 H   0  0  0  0  0  0  0  0  0  0  0  0
   -0.0365    2.4990   -3.5537 H   0  0  0  0  0  0  0  0  0  0  0  0
    0.0242    4.1945   -4.0374 H   0  0  0  0  0  0  0  0  0  0  0  0
   -2.4359    4.2121   -1.2223 H   0  0  0  0  0  0  0  0  0  0  0  0
   -2.2072    4.5608   -2.9389 H   0  0  0  0  0  0  0  0  0  0  0  0
   -2.2665    2.8830   -2.3778 H   0  0  0  0  0  0  0  0  0  0  0  0
   -0.2855    6.0295   -2.4678 H   0  0  0  0  0  0  0  0  0  0  0  0
   -0.4696    5.7566   -0.7465 H   0  0  0  0  0  0  0  0  0  0  0  0
    1.0876    5.4705   -1.5242 H   0  0  0  0  0  0  0  0  0  0  0  0
    0.8320    4.4624    0.5367 H   0  0  0  0  0  0  0  0  0  0  0  0
    1.4248    2.8079    2.2507 H   0  0  0  0  0  0  0  0  0  0  0  0
    0.7092   -1.1496    1.8732 H   0  0  0  0  0  0  0  0  0  0  0  0
    0.3361   -2.5524    3.6184 H   0  0  0  0  0  0  0  0  0  0  0  0
    1.9445   -2.7348    2.8968 H   0  0  0  0  0  0  0  0  0  0  0  0
    1.2748   -4.0207    3.9045 H   0  0  0  0  0  0  0  0  0  0  0  0
   -0.5678   -5.4251    3.1626 H   0  0  0  0  0  0  0  0  0  0  0  0
   -1.2960   -5.2656    1.5735 H   0  0  0  0  0  0  0  0  0  0  0  0
   -1.5887   -4.0230    2.7974 H   0  0  0  0  0  0  0  0  0  0  0  0
    1.7098   -5.6518    2.1119 H   0  0  0  0  0  0  0  0  0  0  0  0
    2.3282   -4.3897    1.0318 H   0  0  0  0  0  0  0  0  0  0  0  0
    1.0270   -5.4632    0.5057 H   0  0  0  0  0  0  0  0  0  0  0  0
   -0.7996   -4.4059   -0.4793 H   0  0  0  0  0  0  0  0  0  0  0  0
   -1.4059   -2.7509   -2.2078 H   0  0  0  0  0  0  0  0  0  0  0  0
   -0.7158    1.2224   -1.8097 H   0  0  0  0  0  0  0  0  0  0  0  0
  1  2  1  0
  2  3  1  0
  2  4  1  0
  2  5  1  0
  5  6  2  0
  6  7  1  0
  7  8  2  0
  8  9  1  0
  9 10  1  0
 10 11  2  0
 11 12  1  0
 12 13  1  0
 13 14  1  0
 13 15  1  0
 13 16  1  0
 12 17  2  0
 17 18  1  0
 18 19  2  0
  9 20  2  0
 20  5  1  0
 19 10  1  0
  1 21  1  0
  1 22  1  0
  1 23  1  0
  3 24  1  0
  3 25  1  0
  3 26  1  0
  4 27  1  0
  4 28  1  0
  4 29  1  0
  6 30  1  0
  7 31  1  0
 11 32  1  0
 14 33  1  0
 14 34  1  0
 14 35  1  0
 15 36  1  0
 15 37  1  0
 15 38  1  0
 16 39  1  0
 16 40  1  0
 16 41  1  0
 17 42  1  0
 18 43  1  0
 20 44  1  0
M  END
$$$$

     RDKit          3D

 44 45  0  0  0  0  0  0  0  0999 V2000
    0.9721    4.4580    0.7888 C   0  0  0  0  0  0  0  0  0  0  0  0
    1.5060    3.6507    1.9679 C   0  0  0  0  0  0  0  0  0  0  0  0
    3.0163    3.9006    2.0805 C   0  0  0  0  0  0  0  0  0  0  0  0
    0.8140    4.1420    3.2451 C   0  0  0  0  0  0  0  0  0  0  0  0
    1.2472    2.1614    1.7892 C   0  0  0  0  0  0  0  0  0  0  0  0
    1.7257    1.2538    2.7312 C   0  0  0  0  0  0  0  0  0  0  0  0
    1.4828   -0.1074    2.5452 C   0  0  0  0  0  0  0  0  0  0  0  0
    0.8169   -0.6034    1.5206 N   0  0  0  0  0  0  0  0  0  0  0  0
    0.3570    0.2704    0.6068 C   0  0  0  0  0  0  0  0  0  0  0  0
   -0.3849   -0.2876   -0.5548 C   0  0  0  0  0  0  0  0  0  0  0  0
   -0.5415   -1.6591   -0.6952 C   0  0  0  0  0  0  0  0  0  0  0  0
   -1.2496   -2.1657   -1.7741 C   0  0  0  0  0  0  0  0  0  0  0  0
   -1.4889   -3.6533   -1.9880 C   0  0  0  0  0  0  0  0  0  0  0  0
   -0.8260   -4.0970   -3.2996 C   0  0  0  0  0  0  0  0  0  0  0  0
   -2.9977   -3.9221   -2.0664 C   0  0  0  0  0  0  0  0  0  0  0  0
   -0.9123   -4.4812   -0.8433 C   0  0  0  0  0  0  0  0  0  0  0  0
   -1.7611   -1.2442   -2.6868 C   0  0  0  0  0  0  0  0  0  0  0  0
   -1.5506    0.1160   -2.4674 C   0  0  0  0  0  0  0  0  0  0  0  0
   -0.8835    0.5963   -1.4390 N   0  0  0  0  0  0  0  0  0  0  0  0
    0.5461    1.6403    0.7143 C   0  0  0  0  0  0  0  0  0  0  0  0
    1.4290    4.1456   -0.1470 H   0  0  0  0  0  0  0  0  0  0  0  0
   -0.1097    4.3776    0.7011 H   0  0  0  0  0  0  0  0  0  0  0  0
    1.2093    5.5229    0.9346 H   0  0  0  0  0  0  0  0  0  0  0  0
    3.4461    3.4161    2.9495 H   0  0  0  0  0  0  0  0  0  0  0  0
    3.5371    3.5446    1.1891 H   0  0  0  0  0  0  0  0  0  0  0  0
    3.2073    4.9733    2.1851 H   0  0  0  0  0  0  0  0  0  0  0  0
    1.1920    3.6354    4.1308 H   0  0  0  0  0  0  0  0  0  0  0  0
   -0.2629    3.9756    3.1883 H   0  0  0  0  0  0  0  0  0  0  0  0
    0.9942    5.2122    3.3769 H   0  0  0  0  0  0  0  0  0  0  0  0
    2.2860    1.5800    3.5998 H   0  0  0  0  0  0  0  0  0  0  0  0
    1.8469   -0.8258    3.2771 H   0  0  0  0  0  0  0  0  0  0  0  0
   -0.1079   -2.3093    0.0488 H   0  0  0  0  0  0  0  0  0  0  0  0
    0.2527   -3.9268   -3.2673 H   0  0  0  0  0  0  0  0  0  0  0  0
   -0.9996   -5.1655   -3.4573 H   0  0  0  0  0  0  0  0  0  0  0  0
   -1.2332   -3.5715   -4.1591 H   0  0  0  0  0  0  0  0  0  0  0  0
   -3.4928   -3.6007   -1.1511 H   0  0  0  0  0  0  0  0  0  0  0  0
   -3.4588   -3.4058   -2.9054 H   0  0  0  0  0  0  0  0  0  0  0  0
   -3.1801   -4.9912   -2.2067 H   0  0  0  0  0  0  0  0  0  0  0  0
    0.1672   -4.3813   -0.7795 H   0  0  0  0  0  0  0  0  0  0  0  0
   -1.1381   -5.5444   -1.0092 H   0  0  0  0  0  0  0  0  0  0  0  0
   -1.3509   -4.1971    0.1118 H   0  0  0  0  0  0  0  0  0  0  0  0
   -2.3170   -1.5606   -3.5615 H   0  0  0  0  0  0  0  0  0  0  0  0
   -1.9440    0.8473   -3.1710 H   0  0  0  0  0  0  0  0  0  0  0  0
    0.1391    2.2810   -0.0526 H   0  0  0  0  0  0  0  0  0  0  0  0
  1  2  1  0
  2  3  1  0
  2  4  1  0
  2  5  1  0
  5  6  2  0
  6  7  1  0
  7  8  2  0
  8  9  1  0
  9 10  1  0
 10 11  2  0
 11 12  1  0
 12 13  1  0
 13 14  1  0
 13 15  1  0
 13 16  1  0
 12 17  2  0
 17 18  1  0
 18 19  2  0
  9 20  2  0
 20  5  1  0
 19 10  1  0
  1 21  1  0
  1 22  1  0
  1 23  1  0
  3 24  1  0
  3 25  1  0
  3 26  1  0
  4 27  1  0
  4 28  1  0
  4 29  1  0
  6 30  1  0
  7 31  1  0
 11 32  1  0
 14 33  1  0
 14 34  1  0
 14 35  1  0
 15 36  1  0
 15 37  1  0
 15 38  1  0
 16 39  1  0
 16 40  1  0
 16 41  1  0
 17 42  1  0
 18 43  1  0
 20 44  1  0
M  END
$$$$

     RDKit          3D

 44 45  0  0  0  0  0  0  0  0999 V2000
   -0.8574   -5.1598    2.0416 C   0  0  0  0  0  0  0  0  0  0  0  0
   -0.1317   -4.2778    1.0238 C   0  0  0  0  0  0  0  0  0  0  0  0
   -0.4882   -4.7667   -0.3854 C   0  0  0  0  0  0  0  0  0  0  0  0
    1.3756   -4.4218    1.2513 C   0  0  0  0  0  0  0  0  0  0  0  0
   -0.5287   -2.8152    1.1650 C   0  0  0  0  0  0  0  0  0  0  0  0
   -1.4436   -2.3719    2.1099 C   0  0  0  0  0  0  0  0  0  0  0  0
   -1.7523   -1.0128    2.1675 C   0  0  0  0  0  0  0  0  0  0  0  0
   -1.2186   -0.1011    1.3760 N   0  0  0  0  0  0  0  0  0  0  0  0
   -0.3255   -0.5259    0.4662 C   0  0  0  0  0  0  0  0  0  0  0  0
    0.2820    0.5059   -0.4157 C   0  0  0  0  0  0  0  0  0  0  0  0
   -0.0771    1.8381   -0.2763 C   0  0  0  0  0  0  0  0  0  0  0  0
    0.4767    2.7964   -1.1099 C   0  0  0  0  0  0  0  0  0  0  0  0
    0.1353    4.2775   -1.0230 C   0  0  0  0  0  0  0  0  0  0  0  0
   -0.4866    4.7432   -2.3470 C   0  0  0  0  0  0  0  0  0  0  0  0
    1.4134    5.0845   -0.7579 C   0  0  0  0  0  0  0  0  0  0  0  0
   -0.8564    4.5656    0.1004 C   0  0  0  0  0  0  0  0  0  0  0  0
    1.3890    2.3492   -2.0630 C   0  0  0  0  0  0  0  0  0  0  0  0
    1.6956    0.9911   -2.1270 C   0  0  0  0  0  0  0  0  0  0  0  0
    1.1724    0.0781   -1.3297 N   0  0  0  0  0  0  0  0  0  0  0  0
    0.0325   -1.8554    0.3321 C   0  0  0  0  0  0  0  0  0  0  0  0
   -1.9350   -5.1231    1.9094 H   0  0  0  0  0  0  0  0  0  0  0  0
   -0.5515   -6.2042    1.9256 H   0  0  0  0  0  0  0  0  0  0  0  0
   -0.6227   -4.8678    3.0610 H   0  0  0  0  0  0  0  0  0  0  0  0
   -0.2292   -5.8303   -0.4769 H   0  0  0  0  0  0  0  0  0  0  0  0
   -1.5507   -4.6608   -0.5758 H   0  0  0  0  0  0  0  0  0  0  0  0
    0.0592   -4.2231   -1.1576 H   0  0  0  0  0  0  0  0  0  0  0  0
    1.6527   -4.0883    2.2487 H   0  0  0  0  0  0  0  0  0  0  0  0
    1.9545   -3.8584    0.5185 H   0  0  0  0  0  0  0  0  0  0  0  0
    1.6577   -5.4789    1.1608 H   0  0  0  0  0  0  0  0  0  0  0  0
   -1.9292   -3.0440    2.8034 H   0  0  0  0  0  0  0  0  0  0  0  0
   -2.4719   -0.6573    2.9008 H   0  0  0  0  0  0  0  0  0  0  0  0
   -0.7890    2.1075    0.4870 H   0  0  0  0  0  0  0  0  0  0  0  0
   -1.4093    4.1964   -2.5566 H   0  0  0  0  0  0  0  0  0  0  0  0
    0.1937    4.6059   -3.1828 H   0  0  0  0  0  0  0  0  0  0  0  0
   -0.7199    5.8090   -2.2912 H   0  0  0  0  0  0  0  0  0  0  0  0
    2.1388    4.9730   -1.5626 H   0  0  0  0  0  0  0  0  0  0  0  0
    1.8803    4.7717    0.1744 H   0  0  0  0  0  0  0  0  0  0  0  0
    1.1726    6.1490   -0.6876 H   0  0  0  0  0  0  0  0  0  0  0  0
   -0.4539    4.2836    1.0733 H   0  0  0  0  0  0  0  0  0  0  0  0
   -1.8019    4.0502   -0.0569 H   0  0  0  0  0  0  0  0  0  0  0  0
   -1.0720    5.6428    0.1314 H   0  0  0  0  0  0  0  0  0  0  0  0
    1.8619    3.0331   -2.7585 H   0  0  0  0  0  0  0  0  0  0  0  0
    2.4091    0.6314   -2.8671 H   0  0  0  0  0  0  0  0  0  0  0  0
    0.7489   -2.1385   -0.4196 H   0  0  0  0  0  0  0  0  0  0  0  0
  1  2  1  0
  2  3  1  0
  2  4  1  0
  2  5  1  0
  5  6  2  0
  6  7  1  0
  7  8  2  0
  8  9  1  0
  9 10  1  0
 10 11  2  0
 11 12  1  0
 12 13  1  0
 13 14  1  0
 13 15  1  0
 13 16  1  0
 12 17  2  0
 17 18  1  0
 18 19  2  0
  9 20  2  0
 20  5  1  0
 19 10  1  0
  1 21  1  0
  1 22  1  0
  1 23  1  0
  3 24  1  0
  3 25  1  0
  3 26  1  0
  4 27  1  0
  4 28  1  0
  4 29  1  0
  6 30  1  0
  7 31  1  0
 11 32  1  0
 14 33  1  0
 14 34  1  0
 14 35  1  0
 15 36  1  0
 15 37  1  0
 15 38  1  0
 16 39  1  0
 16 40  1  0
 16 41  1  0
 17 42  1  0
 18 43  1  0
 20 44  1  0
M  END
$$$$

     RDKit          3D

 44 45  0  0  0  0  0  0  0  0999 V2000
   -0.9028    0.3872   -3.8791 C   0  0  0  0  0  0  0  0  0  0  0  0
    0.0396    1.5015   -3.4129 C   0  0  0  0  0  0  0  0  0  0  0  0
    0.0658    2.6046   -4.4667 C   0  0  0  0  0  0  0  0  0  0  0  0
    1.4583    0.9416   -3.2536 C   0  0  0  0  0  0  0  0  0  0  0  0
   -0.4342    2.0325   -2.0652 C   0  0  0  0  0  0  0  0  0  0  0  0
   -0.7703    3.3601   -1.8448 C   0  0  0  0  0  0  0  0  0  0  0  0
   -1.1710    3.7547   -0.5639 C   0  0  0  0  0  0  0  0  0  0  0  0
   -1.2395    2.9205    0.4741 N   0  0  0  0  0  0  0  0  0  0  0  0
   -0.9172    1.6452    0.2665 C   0  0  0  0  0  0  0  0  0  0  0  0
   -0.9769    0.7204    1.4248 C   0  0  0  0  0  0  0  0  0  0  0  0
   -0.0551   -0.3214    1.5319 C   0  0  0  0  0  0  0  0  0  0  0  0
   -0.1516   -1.2357    2.5721 C   0  0  0  0  0  0  0  0  0  0  0  0
    0.7624   -2.4486    2.7041 C   0  0  0  0  0  0  0  0  0  0  0  0
    1.8481   -2.4538    1.6293 C   0  0  0  0  0  0  0  0  0  0  0  0
    1.4397   -2.4423    4.0787 C   0  0  0  0  0  0  0  0  0  0  0  0
   -0.0845   -3.7186    2.5612 C   0  0  0  0  0  0  0  0  0  0  0  0
   -1.1697   -1.0308    3.4990 C   0  0  0  0  0  0  0  0  0  0  0  0
   -2.0292    0.0603    3.3362 C   0  0  0  0  0  0  0  0  0  0  0  0
   -1.9407    0.9196    2.3249 N   0  0  0  0  0  0  0  0  0  0  0  0
   -0.5266    1.1702   -0.9812 C   0  0  0  0  0  0  0  0  0  0  0  0
   -0.9138   -0.4559   -3.1845 H   0  0  0  0  0  0  0  0  0  0  0  0
   -1.9232    0.7638   -3.9806 H   0  0  0  0  0  0  0  0  0  0  0  0
   -0.5807    0.0131   -4.8583 H   0  0  0  0  0  0  0  0  0  0  0  0
    0.7449    3.4057   -4.1871 H   0  0  0  0  0  0  0  0  0  0  0  0
    0.4115    2.2015   -5.4218 H   0  0  0  0  0  0  0  0  0  0  0  0
   -0.9178    3.0295   -4.6267 H   0  0  0  0  0  0  0  0  0  0  0  0
    1.8188    0.5788   -4.2235 H   0  0  0  0  0  0  0  0  0  0  0  0
    2.1378    1.7194   -2.9049 H   0  0  0  0  0  0  0  0  0  0  0  0
    1.4875    0.1110   -2.5495 H   0  0  0  0  0  0  0  0  0  0  0  0
   -0.7290    4.0973   -2.6317 H   0  0  0  0  0  0  0  0  0  0  0  0
   -1.4362    4.7876   -0.3845 H   0  0  0  0  0  0  0  0  0  0  0  0
    0.7383   -0.3929    0.8005 H   0  0  0  0  0  0  0  0  0  0  0  0
    2.4698   -1.5637    1.6852 H   0  0  0  0  0  0  0  0  0  0  0  0
    1.4189   -2.5227    0.6328 H   0  0  0  0  0  0  0  0  0  0  0  0
    2.4990   -3.3270    1.7725 H   0  0  0  0  0  0  0  0  0  0  0  0
    2.0308   -1.5301    4.2139 H   0  0  0  0  0  0  0  0  0  0  0  0
    0.7070   -2.4996    4.8791 H   0  0  0  0  0  0  0  0  0  0  0  0
    2.0958   -3.3053    4.1755 H   0  0  0  0  0  0  0  0  0  0  0  0
   -0.8307   -3.7894    3.3481 H   0  0  0  0  0  0  0  0  0  0  0  0
    0.5486   -4.6067    2.6308 H   0  0  0  0  0  0  0  0  0  0  0  0
   -0.6015   -3.7302    1.5950 H   0  0  0  0  0  0  0  0  0  0  0  0
   -1.3138   -1.7003    4.3304 H   0  0  0  0  0  0  0  0  0  0  0  0
   -2.8157    0.2254    4.0596 H   0  0  0  0  0  0  0  0  0  0  0  0
   -0.2910    0.1234   -1.1056 H   0  0  0  0  0  0  0  0  0  0  0  0
  1  2  1  0
  2  3  1  0
  2  4  1  0
  2  5  1  0
  5  6  2  0
  6  7  1  0
  7  8  2  0
  8  9  1  0
  9 10  1  0
 10 11  2  0
 11 12  1  0
 12 13  1  0
 13 14  1  0
 13 15  1  0
 13 16  1  0
 12 17  2  0
 17 18  1  0
 18 19  2  0
  9 20  2  0
 20  5  1  0
 19 10  1  0
  1 21  1  0
  1 22  1  0
  1 23  1  0
  3 24  1  0
  3 25  1  0
  3 26  1  0
  4 27  1  0
  4 28  1  0
  4 29  1  0
  6 30  1  0
  7 31  1  0
 11 32  1  0
 14 33  1  0
 14 34  1  0
 14 35  1  0
 15 36  1  0
 15 37  1  0
 15 38  1  0
 16 39  1  0
 16 40  1  0
 16 41  1  0
 17 42  1  0
 18 43  1  0
 20 44  1  0
M  END
$$$$

     RDKit          3D

 44 45  0  0  0  0  0  0  0  0999 V2000
   -4.0334   -0.7786    3.3009 C   0  0  0  0  0  0  0  0  0  0  0  0
   -2.7621   -1.5927    3.0284 C   0  0  0  0  0  0  0  0  0  0  0  0
   -3.1161   -2.7207    2.0631 C   0  0  0  0  0  0  0  0  0  0  0  0
   -2.2657   -2.2111    4.3425 C   0  0  0  0  0  0  0  0  0  0  0  0
   -1.6836   -0.6802    2.4639 C   0  0  0  0  0  0  0  0  0  0  0  0
   -1.2598    0.4280    3.1946 C   0  0  0  0  0  0  0  0  0  0  0  0
   -0.2772    1.2613    2.6588 C   0  0  0  0  0  0  0  0  0  0  0  0
    0.2896    1.0675    1.4835 N   0  0  0  0  0  0  0  0  0  0  0  0
   -0.1116   -0.0069    0.7814 C   0  0  0  0  0  0  0  0  0  0  0  0
    0.5335   -0.2291   -0.5379 C   0  0  0  0  0  0  0  0  0  0  0  0
    1.2372    0.7985   -1.1459 C   0  0  0  0  0  0  0  0  0  0  0  0
    1.8220    0.5994   -2.3876 C   0  0  0  0  0  0  0  0  0  0  0  0
    2.5834    1.6883   -3.1312 C   0  0  0  0  0  0  0  0  0  0  0  0
    2.5195    3.0212   -2.3903 C   0  0  0  0  0  0  0  0  0  0  0  0
    4.0564    1.2808   -3.2766 C   0  0  0  0  0  0  0  0  0  0  0  0
    1.9801    1.8834   -4.5290 C   0  0  0  0  0  0  0  0  0  0  0  0
    1.6900   -0.6677   -2.9516 C   0  0  0  0  0  0  0  0  0  0  0  0
    0.9667   -1.6419   -2.2634 C   0  0  0  0  0  0  0  0  0  0  0  0
    0.3912   -1.4467   -1.0917 N   0  0  0  0  0  0  0  0  0  0  0  0
   -1.0763   -0.8917    1.2381 C   0  0  0  0  0  0  0  0  0  0  0  0
   -3.8669    0.0040    4.0304 H   0  0  0  0  0  0  0  0  0  0  0  0
   -4.4056   -0.3248    2.3813 H   0  0  0  0  0  0  0  0  0  0  0  0
   -4.8144   -1.4334    3.7023 H   0  0  0  0  0  0  0  0  0  0  0  0
   -3.4947   -2.3370    1.1197 H   0  0  0  0  0  0  0  0  0  0  0  0
   -2.2638   -3.3681    1.8678 H   0  0  0  0  0  0  0  0  0  0  0  0
   -3.9047   -3.3437    2.5077 H   0  0  0  0  0  0  0  0  0  0  0  0
   -2.0590   -1.4492    5.0939 H   0  0  0  0  0  0  0  0  0  0  0  0
   -1.3501   -2.7793    4.1759 H   0  0  0  0  0  0  0  0  0  0  0  0
   -3.0256   -2.8774    4.7534 H   0  0  0  0  0  0  0  0  0  0  0  0
   -1.6723    0.6525    4.1677 H   0  0  0  0  0  0  0  0  0  0  0  0
    0.0672    2.1253    3.2247 H   0  0  0  0  0  0  0  0  0  0  0  0
    1.3150    1.7445   -0.6349 H   0  0  0  0  0  0  0  0  0  0  0  0
    3.0027    2.9654   -1.4168 H   0  0  0  0  0  0  0  0  0  0  0  0
    1.4940    3.3557   -2.2558 H   0  0  0  0  0  0  0  0  0  0  0  0
    3.0484    3.7886   -2.9740 H   0  0  0  0  0  0  0  0  0  0  0  0
    4.1708    0.3730   -3.8664 H   0  0  0  0  0  0  0  0  0  0  0  0
    4.5077    1.1166   -2.2987 H   0  0  0  0  0  0  0  0  0  0  0  0
    4.6110    2.0726   -3.7873 H   0  0  0  0  0  0  0  0  0  0  0  0
    2.0542    0.9869   -5.1326 H   0  0  0  0  0  0  0  0  0  0  0  0
    0.9300    2.1749   -4.4638 H   0  0  0  0  0  0  0  0  0  0  0  0
    2.5231    2.6739   -5.0601 H   0  0  0  0  0  0  0  0  0  0  0  0
    2.1372   -0.9138   -3.9065 H   0  0  0  0  0  0  0  0  0  0  0  0
    0.8498   -2.6335   -2.6963 H   0  0  0  0  0  0  0  0  0  0  0  0
   -1.3376   -1.7348    0.6184 H   0  0  0  0  0  0  0  0  0  0  0  0
  1  2  1  0
  2  3  1  0
  2  4  1  0
  2  5  1  0
  5  6  2  0
  6  7  1  0
  7  8  2  0
  8  9  1  0
  9 10  1  0
 10 11  2  0
 11 12  1  0
 12 13  1  0
 13 14  1  0
 13 15  1  0
 13 16  1  0
 12 17  2  0
 17 18  1  0
 18 19  2  0
  9 20  2  0
 20  5  1  0
 19 10  1  0
  1 21  1  0
  1 22  1  0
  1 23  1  0
  3 24  1  0
  3 25  1  0
  3 26  1  0
  4 27  1  0
  4 28  1  0
  4 29  1  0
  6 30  1  0
  7 31  1  0
 11 32  1  0
 14 33  1  0
 14 34  1  0
 14 35  1  0
 15 36  1  0
 15 37  1  0
 15 38  1  0
 16 39  1  0
 16 40  1  0
 16 41  1  0
 17 42  1  0
 18 43  1  0
 20 44  1  0
M  END
$$$$

     RDKit          3D

 44 45  0  0  0  0  0  0  0  0999 V2000
   -1.5986    4.2201   -2.9573 C   0  0  0  0  0  0  0  0  0  0  0  0
   -0.4819    3.1706   -3.0244 C   0  0  0  0  0  0  0  0  0  0  0  0
   -0.8873    2.0986   -4.0303 C   0  0  0  0  0  0  0  0  0  0  0  0
    0.8105    3.8363   -3.5167 C   0  0  0  0  0  0  0  0  0  0  0  0
   -0.2491    2.5827   -1.6416 C   0  0  0  0  0  0  0  0  0  0  0  0
    0.0863    3.4181   -0.5795 C   0  0  0  0  0  0  0  0  0  0  0  0
    0.3167    2.8604    0.6773 C   0  0  0  0  0  0  0  0  0  0  0  0
    0.2382    1.5671    0.9337 N   0  0  0  0  0  0  0  0  0  0  0  0
   -0.0979    0.7591   -0.0872 C   0  0  0  0  0  0  0  0  0  0  0  0
   -0.1964   -0.6971    0.2004 C   0  0  0  0  0  0  0  0  0  0  0  0
    0.2045   -1.1958    1.4307 C   0  0  0  0  0  0  0  0  0  0  0  0
    0.1477   -2.5588    1.6781 C   0  0  0  0  0  0  0  0  0  0  0  0
    0.5880   -3.1909    2.9900 C   0  0  0  0  0  0  0  0  0  0  0  0
    1.7646   -4.1398    2.7234 C   0  0  0  0  0  0  0  0  0  0  0  0
   -0.5731   -3.9892    3.5976 C   0  0  0  0  0  0  0  0  0  0  0  0
    1.0297   -2.1398    4.0021 C   0  0  0  0  0  0  0  0  0  0  0  0
   -0.3365   -3.3675    0.6520 C   0  0  0  0  0  0  0  0  0  0  0  0
   -0.7415   -2.7762   -0.5441 C   0  0  0  0  0  0  0  0  0  0  0  0
   -0.6815   -1.4803   -0.7813 N   0  0  0  0  0  0  0  0  0  0  0  0
   -0.3459    1.2294   -1.3685 C   0  0  0  0  0  0  0  0  0  0  0  0
   -2.5297    3.7788   -2.6062 H   0  0  0  0  0  0  0  0  0  0  0  0
   -1.7676    4.6484   -3.9474 H   0  0  0  0  0  0  0  0  0  0  0  0
   -1.3398    5.0430   -2.2953 H   0  0  0  0  0  0  0  0  0  0  0  0
   -1.0497    2.5648   -5.0136 H   0  0  0  0  0  0  0  0  0  0  0  0
   -0.1087    1.3490   -4.1509 H   0  0  0  0  0  0  0  0  0  0  0  0
   -1.8146    1.6078   -3.7427 H   0  0  0  0  0  0  0  0  0  0  0  0
    1.6261    3.1116   -3.5729 H   0  0  0  0  0  0  0  0  0  0  0  0
    1.1179    4.6509   -2.8692 H   0  0  0  0  0  0  0  0  0  0  0  0
    0.6560    4.2534   -4.5167 H   0  0  0  0  0  0  0  0  0  0  0  0
    0.1702    4.4892   -0.7113 H   0  0  0  0  0  0  0  0  0  0  0  0
    0.5813    3.5038    1.5163 H   0  0  0  0  0  0  0  0  0  0  0  0
    0.5593   -0.5037    2.1806 H   0  0  0  0  0  0  0  0  0  0  0  0
    2.0862   -4.6048    3.6578 H   0  0  0  0  0  0  0  0  0  0  0  0
    1.4886   -4.9395    2.0425 H   0  0  0  0  0  0  0  0  0  0  0  0
    2.6127   -3.5978    2.2972 H   0  0  0  0  0  0  0  0  0  0  0  0
   -1.4338   -3.3482    3.7815 H   0  0  0  0  0  0  0  0  0  0  0  0
   -0.2606   -4.4319    4.5475 H   0  0  0  0  0  0  0  0  0  0  0  0
   -0.8836   -4.8077    2.9534 H   0  0  0  0  0  0  0  0  0  0  0  0
    1.8821   -1.5689    3.6402 H   0  0  0  0  0  0  0  0  0  0  0  0
    1.3361   -2.6347    4.9350 H   0  0  0  0  0  0  0  0  0  0  0  0
    0.2218   -1.4524    4.2432 H   0  0  0  0  0  0  0  0  0  0  0  0
   -0.4049   -4.4412    0.7625 H   0  0  0  0  0  0  0  0  0  0  0  0
   -1.1319   -3.3975   -1.3488 H   0  0  0  0  0  0  0  0  0  0  0  0
   -0.6097    0.5203   -2.1368 H   0  0  0  0  0  0  0  0  0  0  0  0
  1  2  1  0
  2  3  1  0
  2  4  1  0
  2  5  1  0
  5  6  2  0
  6  7  1  0
  7  8  2  0
  8  9  1  0
  9 10  1  0
 10 11  2  0
 11 12  1  0
 12 13  1  0
 13 14  1  0
 13 15  1  0
 13 16  1  0
 12 17  2  0
 17 18  1  0
 18 19  2  0
  9 20  2  0
 20  5  1  0
 19 10  1  0
  1 21  1  0
  1 22  1  0
  1 23  1  0
  3 24  1  0
  3 25  1  0
  3 26  1  0
  4 27  1  0
  4 28  1  0
  4 29  1  0
  6 30  1  0
  7 31  1  0
 11 32  1  0
 14 33  1  0
 14 34  1  0
 14 35  1  0
 15 36  1  0
 15 37  1  0
 15 38  1  0
 16 39  1  0
 16 40  1  0
 16 41  1  0
 17 42  1  0
 18 43  1  0
 20 44  1  0
M  END
$$$$

     RDKit          3D

 44 45  0  0  0  0  0  0  0  0999 V2000
    0.3729    4.7626   -2.3093 C   0  0  0  0  0  0  0  0  0  0  0  0
   -0.8003    4.0101   -1.6662 C   0  0  0  0  0  0  0  0  0  0  0  0
   -2.0792    4.2827   -2.4733 C   0  0  0  0  0  0  0  0  0  0  0  0
   -1.0034    4.5403   -0.2495 C   0  0  0  0  0  0  0  0  0  0  0  0
   -0.5055    2.5168   -1.6715 C   0  0  0  0  0  0  0  0  0  0  0  0
   -0.3398    1.8530   -2.8854 C   0  0  0  0  0  0  0  0  0  0  0  0
   -0.0827    0.4814   -2.8808 C   0  0  0  0  0  0  0  0  0  0  0  0
    0.0241   -0.2423   -1.7843 N   0  0  0  0  0  0  0  0  0  0  0  0
   -0.1302    0.3972   -0.6094 C   0  0  0  0  0  0  0  0  0  0  0  0
   -0.0092   -0.4228    0.6253 C   0  0  0  0  0  0  0  0  0  0  0  0
    0.3426   -1.7608    0.5346 C   0  0  0  0  0  0  0  0  0  0  0  0
    0.4676   -2.5233    1.6833 C   0  0  0  0  0  0  0  0  0  0  0  0
    0.8583   -3.9937    1.6655 C   0  0  0  0  0  0  0  0  0  0  0  0
   -0.3051   -4.8361    2.2090 C   0  0  0  0  0  0  0  0  0  0  0  0
    2.0943   -4.2159    2.5467 C   0  0  0  0  0  0  0  0  0  0  0  0
    1.1853   -4.4693    0.2537 C   0  0  0  0  0  0  0  0  0  0  0  0
    0.2146   -1.8852    2.8957 C   0  0  0  0  0  0  0  0  0  0  0  0
   -0.1333   -0.5346    2.8913 C   0  0  0  0  0  0  0  0  0  0  0  0
   -0.2468    0.1926    1.7974 N   0  0  0  0  0  0  0  0  0  0  0  0
   -0.3916    1.7549   -0.5174 C   0  0  0  0  0  0  0  0  0  0  0  0
    0.5274    4.4622   -3.3445 H   0  0  0  0  0  0  0  0  0  0  0  0
    0.1709    5.8375   -2.3118 H   0  0  0  0  0  0  0  0  0  0  0  0
    1.2955    4.5820   -1.7569 H   0  0  0  0  0  0  0  0  0  0  0  0
   -1.9708    3.9885   -3.5128 H   0  0  0  0  0  0  0  0  0  0  0  0
   -2.9268    3.7370   -2.0477 H   0  0  0  0  0  0  0  0  0  0  0  0
   -2.3124    5.3516   -2.4602 H   0  0  0  0  0  0  0  0  0  0  0  0
   -1.2146    5.6182   -0.2910 H   0  0  0  0  0  0  0  0  0  0  0  0
   -1.8465    4.0556    0.2394 H   0  0  0  0  0  0  0  0  0  0  0  0
   -0.1164    4.4036    0.3633 H   0  0  0  0  0  0  0  0  0  0  0  0
   -0.4047    2.3769   -3.8287 H   0  0  0  0  0  0  0  0  0  0  0  0
    0.0406   -0.0492   -3.8230 H   0  0  0  0  0  0  0  0  0  0  0  0
    0.5131   -2.1829   -0.4414 H   0  0  0  0  0  0  0  0  0  0  0  0
   -1.1957   -4.7127    1.5870 H   0  0  0  0  0  0  0  0  0  0  0  0
   -0.5577   -4.5647    3.2294 H   0  0  0  0  0  0  0  0  0  0  0  0
   -0.0283   -5.8929    2.2104 H   0  0  0  0  0  0  0  0  0  0  0  0
    2.9367   -3.6248    2.1854 H   0  0  0  0  0  0  0  0  0  0  0  0
    2.3792   -5.2708    2.5316 H   0  0  0  0  0  0  0  0  0  0  0  0
    1.9055   -3.9523    3.5843 H   0  0  0  0  0  0  0  0  0  0  0  0
    1.4864   -5.5256    0.2852 H   0  0  0  0  0  0  0  0  0  0  0  0
    2.0109   -3.9077   -0.1805 H   0  0  0  0  0  0  0  0  0  0  0  0
    0.3220   -4.3970   -0.4033 H   0  0  0  0  0  0  0  0  0  0  0  0
    0.2804   -2.4140    3.8382 H   0  0  0  0  0  0  0  0  0  0  0  0
   -0.3244   -0.0225    3.8325 H   0  0  0  0  0  0  0  0  0  0  0  0
   -0.5028    2.1967    0.4599 H   0  0  0  0  0  0  0  0  0  0  0  0
  1  2  1  0
  2  3  1  0
  2  4  1  0
  2  5  1  0
  5  6  2  0
  6  7  1  0
  7  8  2  0
  8  9  1  0
  9 10  1  0
 10 11  2  0
 11 12  1  0
 12 13  1  0
 13 14  1  0
 13 15  1  0
 13 16  1  0
 12 17  2  0
 17 18  1  0
 18 19  2  0
  9 20  2  0
 20  5  1  0
 19 10  1  0
  1 21  1  0
  1 22  1  0
  1 23  1  0
  3 24  1  0
  3 25  1  0
  3 26  1  0
  4 27  1  0
  4 28  1  0
  4 29  1  0
  6 30  1  0
  7 31  1  0
 11 32  1  0
 14 33  1  0
 14 34  1  0
 14 35  1  0
 15 36  1  0
 15 37  1  0
 15 38  1  0
 16 39  1  0
 16 40  1  0
 16 41  1  0
 17 42  1  0
 18 43  1  0
 20 44  1  0
M  END
$$$$

     RDKit          3D

 44 45  0  0  0  0  0  0  0  0999 V2000
   -4.6753    1.8831   -1.5254 C   0  0  0  0  0  0  0  0  0  0  0  0
   -3.4677    1.3996   -2.3369 C   0  0  0  0  0  0  0  0  0  0  0  0
   -3.3185    2.2645   -3.5973 C   0  0  0  0  0  0  0  0  0  0  0  0
   -3.7231   -0.0433   -2.7662 C   0  0  0  0  0  0  0  0  0  0  0  0
   -2.2159    1.5206   -1.4814 C   0  0  0  0  0  0  0  0  0  0  0  0
   -1.7921    2.7726   -1.0409 C   0  0  0  0  0  0  0  0  0  0  0  0
   -0.6562    2.8554   -0.2357 C   0  0  0  0  0  0  0  0  0  0  0  0
    0.0574    1.8129    0.1463 N   0  0  0  0  0  0  0  0  0  0  0  0
   -0.3491    0.6033   -0.2841 C   0  0  0  0  0  0  0  0  0  0  0  0
    0.4534   -0.5752    0.1422 C   0  0  0  0  0  0  0  0  0  0  0  0
    1.5164   -0.4125    1.0161 C   0  0  0  0  0  0  0  0  0  0  0  0
    2.2582   -1.5116    1.4216 C   0  0  0  0  0  0  0  0  0  0  0  0
    3.4284   -1.4109    2.3901 C   0  0  0  0  0  0  0  0  0  0  0  0
    3.6080    0.0157    2.9001 C   0  0  0  0  0  0  0  0  0  0  0  0
    4.7193   -1.8443    1.6824 C   0  0  0  0  0  0  0  0  0  0  0  0
    3.1860   -2.3272    3.5947 C   0  0  0  0  0  0  0  0  0  0  0  0
    1.8919   -2.7491    0.8973 C   0  0  0  0  0  0  0  0  0  0  0  0
    0.8092   -2.8179    0.0190 C   0  0  0  0  0  0  0  0  0  0  0  0
    0.0940   -1.7741   -0.3555 N   0  0  0  0  0  0  0  0  0  0  0  0
   -1.4635    0.4270   -1.0877 C   0  0  0  0  0  0  0  0  0  0  0  0
   -4.5739    2.9229   -1.2237 H   0  0  0  0  0  0  0  0  0  0  0  0
   -5.5869    1.8055   -2.1266 H   0  0  0  0  0  0  0  0  0  0  0  0
   -4.7984    1.2771   -0.6256 H   0  0  0  0  0  0  0  0  0  0  0  0
   -2.4453    1.9607   -4.1759 H   0  0  0  0  0  0  0  0  0  0  0  0
   -4.2032    2.1571   -4.2296 H   0  0  0  0  0  0  0  0  0  0  0  0
   -3.2210    3.3181   -3.3590 H   0  0  0  0  0  0  0  0  0  0  0  0
   -3.8808   -0.6967   -1.9125 H   0  0  0  0  0  0  0  0  0  0  0  0
   -4.6362   -0.0857   -3.3784 H   0  0  0  0  0  0  0  0  0  0  0  0
   -2.9055   -0.4364   -3.3661 H   0  0  0  0  0  0  0  0  0  0  0  0
   -2.3224    3.6767   -1.3102 H   0  0  0  0  0  0  0  0  0  0  0  0
   -0.3178    3.8289    0.1165 H   0  0  0  0  0  0  0  0  0  0  0  0
    1.7552    0.5792    1.3640 H   0  0  0  0  0  0  0  0  0  0  0  0
    3.8343    0.7039    2.0905 H   0  0  0  0  0  0  0  0  0  0  0  0
    2.7244    0.3697    3.4253 H   0  0  0  0  0  0  0  0  0  0  0  0
    4.4488    0.0501    3.6071 H   0  0  0  0  0  0  0  0  0  0  0  0
    4.6683   -2.8741    1.3439 H   0  0  0  0  0  0  0  0  0  0  0  0
    5.5635   -1.7670    2.3721 H   0  0  0  0  0  0  0  0  0  0  0  0
    4.9191   -1.2049    0.8175 H   0  0  0  0  0  0  0  0  0  0  0  0
    4.0179   -2.2470    4.3006 H   0  0  0  0  0  0  0  0  0  0  0  0
    3.1159   -3.3735    3.3041 H   0  0  0  0  0  0  0  0  0  0  0  0
    2.2685   -2.0514    4.1105 H   0  0  0  0  0  0  0  0  0  0  0  0
    2.4288   -3.6529    1.1511 H   0  0  0  0  0  0  0  0  0  0  0  0
    0.5122   -3.7799   -0.3957 H   0  0  0  0  0  0  0  0  0  0  0  0
   -1.7265   -0.5689   -1.3987 H   0  0  0  0  0  0  0  0  0  0  0  0
  1  2  1  0
  2  3  1  0
  2  4  1  0
  2  5  1  0
  5  6  2  0
  6  7  1  0
  7  8  2  0
  8  9  1  0
  9 10  1  0
 10 11  2  0
 11 12  1  0
 12 13  1  0
 13 14  1  0
 13 15  1  0
 13 16  1  0
 12 17  2  0
 17 18  1  0
 18 19  2  0
  9 20  2  0
 20  5  1  0
 19 10  1  0
  1 21  1  0
  1 22  1  0
  1 23  1  0
  3 24  1  0
  3 25  1  0
  3 26  1  0
  4 27  1  0
  4 28  1  0
  4 29  1  0
  6 30  1  0
  7 31  1  0
 11 32  1  0
 14 33  1  0
 14 34  1  0
 14 35  1  0
 15 36  1  0
 15 37  1  0
 15 38  1  0
 16 39  1  0
 16 40  1  0
 16 41  1  0
 17 42  1  0
 18 43  1  0
 20 44  1  0
M  END
$$$$

     RDKit          3D

 44 45  0  0  0  0  0  0  0  0999 V2000
   -4.0450   -2.0852    0.8171 C   0  0  0  0  0  0  0  0  0  0  0  0
   -3.1106   -2.4258    1.9737 C   0  0  0  0  0  0  0  0  0  0  0  0
   -3.7662   -1.9625    3.2824 C   0  0  0  0  0  0  0  0  0  0  0  0
   -2.9162   -3.9470    2.0115 C   0  0  0  0  0  0  0  0  0  0  0  0
   -1.7615   -1.7410    1.8155 C   0  0  0  0  0  0  0  0  0  0  0  0
   -0.7727   -1.9188    2.7813 C   0  0  0  0  0  0  0  0  0  0  0  0
    0.4595   -1.2852    2.6132 C   0  0  0  0  0  0  0  0  0  0  0  0
    0.7570   -0.5226    1.5805 N   0  0  0  0  0  0  0  0  0  0  0  0
   -0.1922   -0.3560    0.6423 C   0  0  0  0  0  0  0  0  0  0  0  0
    0.1553    0.4752   -0.5416 C   0  0  0  0  0  0  0  0  0  0  0  0
    1.4342    0.9927   -0.6810 C   0  0  0  0  0  0  0  0  0  0  0  0
    1.7524    1.7632   -1.7882 C   0  0  0  0  0  0  0  0  0  0  0  0
    3.1248    2.3851   -2.0018 C   0  0  0  0  0  0  0  0  0  0  0  0
    3.7369    1.8507   -3.3044 C   0  0  0  0  0  0  0  0  0  0  0  0
    2.9860    3.9117   -2.1051 C   0  0  0  0  0  0  0  0  0  0  0  0
    4.0733    2.0622   -0.8514 C   0  0  0  0  0  0  0  0  0  0  0  0
    0.7433    1.9685   -2.7274 C   0  0  0  0  0  0  0  0  0  0  0  0
   -0.5157    1.4103   -2.5036 C   0  0  0  0  0  0  0  0  0  0  0  0
   -0.8191    0.6817   -1.4484 N   0  0  0  0  0  0  0  0  0  0  0  0
   -1.4490   -0.9335    0.7355 C   0  0  0  0  0  0  0  0  0  0  0  0
   -4.2380   -1.0155    0.7596 H   0  0  0  0  0  0  0  0  0  0  0  0
   -5.0112   -2.5908    0.9629 H   0  0  0  0  0  0  0  0  0  0  0  0
   -3.6437   -2.4209   -0.1365 H   0  0  0  0  0  0  0  0  0  0  0  0
   -3.8947   -0.8762    3.2849 H   0  0  0  0  0  0  0  0  0  0  0  0
   -4.7498   -2.4272    3.3910 H   0  0  0  0  0  0  0  0  0  0  0  0
   -3.1803   -2.2387    4.1525 H   0  0  0  0  0  0  0  0  0  0  0  0
   -2.4358   -4.2993    1.0987 H   0  0  0  0  0  0  0  0  0  0  0  0
   -3.8865   -4.4431    2.1068 H   0  0  0  0  0  0  0  0  0  0  0  0
   -2.3137   -4.2584    2.8628 H   0  0  0  0  0  0  0  0  0  0  0  0
   -0.9427   -2.5320    3.6564 H   0  0  0  0  0  0  0  0  0  0  0  0
    1.2396   -1.4131    3.3617 H   0  0  0  0  0  0  0  0  0  0  0  0
    2.1645    0.7844    0.0869 H   0  0  0  0  0  0  0  0  0  0  0  0
    3.1262    2.1045   -4.1688 H   0  0  0  0  0  0  0  0  0  0  0  0
    4.7231    2.2962   -3.4602 H   0  0  0  0  0  0  0  0  0  0  0  0
    3.8473    0.7662   -3.2655 H   0  0  0  0  0  0  0  0  0  0  0  0
    3.9709    4.3603   -2.2638 H   0  0  0  0  0  0  0  0  0  0  0  0
    2.5603    4.3263   -1.1870 H   0  0  0  0  0  0  0  0  0  0  0  0
    2.3590    4.2056   -2.9419 H   0  0  0  0  0  0  0  0  0  0  0  0
    4.2536    0.9929   -0.7660 H   0  0  0  0  0  0  0  0  0  0  0  0
    3.6945    2.4320    0.1001 H   0  0  0  0  0  0  0  0  0  0  0  0
    5.0451    2.5464   -1.0307 H   0  0  0  0  0  0  0  0  0  0  0  0
    0.9127    2.5482   -3.6260 H   0  0  0  0  0  0  0  0  0  0  0  0
   -1.3116    1.5708   -3.2282 H   0  0  0  0  0  0  0  0  0  0  0  0
   -2.1634   -0.7421   -0.0500 H   0  0  0  0  0  0  0  0  0  0  0  0
  1  2  1  0
  2  3  1  0
  2  4  1  0
  2  5  1  0
  5  6  2  0
  6  7  1  0
  7  8  2  0
  8  9  1  0
  9 10  1  0
 10 11  2  0
 11 12  1  0
 12 13  1  0
 13 14  1  0
 13 15  1  0
 13 16  1  0
 12 17  2  0
 17 18  1  0
 18 19  2  0
  9 20  2  0
 20  5  1  0
 19 10  1  0
  1 21  1  0
  1 22  1  0
  1 23  1  0
  3 24  1  0
  3 25  1  0
  3 26  1  0
  4 27  1  0
  4 28  1  0
  4 29  1  0
  6 30  1  0
  7 31  1  0
 11 32  1  0
 14 33  1  0
 14 34  1  0
 14 35  1  0
 15 36  1  0
 15 37  1  0
 15 38  1  0
 16 39  1  0
 16 40  1  0
 16 41  1  0
 17 42  1  0
 18 43  1  0
 20 44  1  0
M  END
$$$$

     RDKit          3D

 44 45  0  0  0  0  0  0  0  0999 V2000
   -1.5218   -2.0362   -2.3832 C   0  0  0  0  0  0  0  0  0  0  0  0
   -2.8106   -1.2538   -2.1364 C   0  0  0  0  0  0  0  0  0  0  0  0
   -3.3620   -0.7885   -3.4886 C   0  0  0  0  0  0  0  0  0  0  0  0
   -3.8250   -2.1896   -1.4716 C   0  0  0  0  0  0  0  0  0  0  0  0
   -2.5757   -0.0413   -1.2425 C   0  0  0  0  0  0  0  0  0  0  0  0
   -3.6398    0.7831   -0.8865 C   0  0  0  0  0  0  0  0  0  0  0  0
   -3.3988    1.8939   -0.0728 C   0  0  0  0  0  0  0  0  0  0  0  0
   -2.1912    2.2131    0.3893 N   0  0  0  0  0  0  0  0  0  0  0  0
   -1.1727    1.4251    0.0576 C   0  0  0  0  0  0  0  0  0  0  0  0
    0.1685    1.7699    0.5854 C   0  0  0  0  0  0  0  0  0  0  0  0
    1.0483    0.7569    0.9600 C   0  0  0  0  0  0  0  0  0  0  0  0
    2.3073    1.0669    1.4600 C   0  0  0  0  0  0  0  0  0  0  0  0
    3.2556   -0.0551    1.8687 C   0  0  0  0  0  0  0  0  0  0  0  0
    2.5929   -0.8905    2.9687 C   0  0  0  0  0  0  0  0  0  0  0  0
    3.5451   -0.9502    0.6541 C   0  0  0  0  0  0  0  0  0  0  0  0
    4.5788    0.4943    2.3960 C   0  0  0  0  0  0  0  0  0  0  0  0
    2.6258    2.4126    1.5684 C   0  0  0  0  0  0  0  0  0  0  0  0
    1.6867    3.3697    1.1676 C   0  0  0  0  0  0  0  0  0  0  0  0
    0.4859    3.0583    0.6827 N   0  0  0  0  0  0  0  0  0  0  0  0
   -1.3270    0.2975   -0.7486 C   0  0  0  0  0  0  0  0  0  0  0  0
   -0.7809   -1.4260   -2.8945 H   0  0  0  0  0  0  0  0  0  0  0  0
   -1.7388   -2.9046   -3.0196 H   0  0  0  0  0  0  0  0  0  0  0  0
   -1.0977   -2.4083   -1.4568 H   0  0  0  0  0  0  0  0  0  0  0  0
   -2.6563   -0.1131   -3.9820 H   0  0  0  0  0  0  0  0  0  0  0  0
   -4.3106   -0.2741   -3.3794 H   0  0  0  0  0  0  0  0  0  0  0  0
   -3.5301   -1.6444   -4.1421 H   0  0  0  0  0  0  0  0  0  0  0  0
   -4.7842   -1.6963   -1.3274 H   0  0  0  0  0  0  0  0  0  0  0  0
   -3.4611   -2.5311   -0.4987 H   0  0  0  0  0  0  0  0  0  0  0  0
   -3.9955   -3.0615   -2.1051 H   0  0  0  0  0  0  0  0  0  0  0  0
   -4.6425    0.5750   -1.2197 H   0  0  0  0  0  0  0  0  0  0  0  0
   -4.2214    2.5386    0.2084 H   0  0  0  0  0  0  0  0  0  0  0  0
    0.7447   -0.2750    0.8763 H   0  0  0  0  0  0  0  0  0  0  0  0
    3.2780   -1.6794    3.3010 H   0  0  0  0  0  0  0  0  0  0  0  0
    2.3449   -0.2708    3.8309 H   0  0  0  0  0  0  0  0  0  0  0  0
    1.6773   -1.3712    2.6164 H   0  0  0  0  0  0  0  0  0  0  0  0
    2.6375   -1.4200    0.2782 H   0  0  0  0  0  0  0  0  0  0  0  0
    4.2399   -1.7428    0.9465 H   0  0  0  0  0  0  0  0  0  0  0  0
    4.0001   -0.3740   -0.1501 H   0  0  0  0  0  0  0  0  0  0  0  0
    4.4385    1.0954    3.2876 H   0  0  0  0  0  0  0  0  0  0  0  0
    5.2472   -0.3279    2.6593 H   0  0  0  0  0  0  0  0  0  0  0  0
    5.0812    1.1024    1.6518 H   0  0  0  0  0  0  0  0  0  0  0  0
    3.5814    2.7456    1.9417 H   0  0  0  0  0  0  0  0  0  0  0  0
    1.9331    4.4205    1.2394 H   0  0  0  0  0  0  0  0  0  0  0  0
   -0.4550   -0.2929   -0.9904 H   0  0  0  0  0  0  0  0  0  0  0  0
  1  2  1  0
  2  3  1  0
  2  4  1  0
  2  5  1  0
  5  6  2  0
  6  7  1  0
  7  8  2  0
  8  9  1  0
  9 10  1  0
 10 11  2  0
 11 12  1  0
 12 13  1  0
 13 14  1  0
 13 15  1  0
 13 16  1  0
 12 17  2  0
 17 18  1  0
 18 19  2  0
  9 20  2  0
 20  5  1  0
 19 10  1  0
  1 21  1  0
  1 22  1  0
  1 23  1  0
  3 24  1  0
  3 25  1  0
  3 26  1  0
  4 27  1  0
  4 28  1  0
  4 29  1  0
  6 30  1  0
  7 31  1  0
 11 32  1  0
 14 33  1  0
 14 34  1  0
 14 35  1  0
 15 36  1  0
 15 37  1  0
 15 38  1  0
 16 39  1  0
 16 40  1  0
 16 41  1  0
 17 42  1  0
 18 43  1  0
 20 44  1  0
M  END
$$$$
