
     RDKit          3D

 26 27  0  0  0  0  0  0  0  0999 V2000
   -1.6533   -0.3011   -5.3972 F   0  0  0  0  0  0  0  0  0  0  0  0
   -2.4028   -0.4674   -4.2987 C   0  0  0  0  0  0  0  0  0  0  0  0
   -3.4115    0.4141   -4.3680 F   0  0  0  0  0  0  0  0  0  0  0  0
   -2.9774   -1.6781   -4.3850 F   0  0  0  0  0  0  0  0  0  0  0  0
   -1.6156   -0.3148   -3.0340 C   0  0  0  0  0  0  0  0  0  0  0  0
   -0.2613   -0.0223   -3.0354 C   0  0  0  0  0  0  0  0  0  0  0  0
    0.3854    0.0973   -1.8316 C   0  0  0  0  0  0  0  0  0  0  0  0
   -0.3258   -0.0747   -0.6555 C   0  0  0  0  0  0  0  0  0  0  0  0
    0.3338    0.0490    0.6547 C   0  0  0  0  0  0  0  0  0  0  0  0
   -0.3822   -0.1113    1.8295 C   0  0  0  0  0  0  0  0  0  0  0  0
    0.2581    0.0227    3.0345 C   0  0  0  0  0  0  0  0  0  0  0  0
    1.6140    0.3104    3.0358 C   0  0  0  0  0  0  0  0  0  0  0  0
    2.3975    0.4927    4.2987 C   0  0  0  0  0  0  0  0  0  0  0  0
    1.6590    0.2895    5.3989 F   0  0  0  0  0  0  0  0  0  0  0  0
    3.4476   -0.3412    4.3581 F   0  0  0  0  0  0  0  0  0  0  0  0
    2.9129    1.7273    4.3872 F   0  0  0  0  0  0  0  0  0  0  0  0
    2.2631    0.4460    1.8137 C   0  0  0  0  0  0  0  0  0  0  0  0
    1.6443    0.3209    0.6618 N   0  0  0  0  0  0  0  0  0  0  0  0
   -1.6336   -0.3529   -0.6597 N   0  0  0  0  0  0  0  0  0  0  0  0
   -2.2569   -0.4699   -1.8116 C   0  0  0  0  0  0  0  0  0  0  0  0
    0.2794    0.1113   -3.9639 H   0  0  0  0  0  0  0  0  0  0  0  0
    1.4406    0.3189   -1.7893 H   0  0  0  0  0  0  0  0  0  0  0  0
   -1.4360   -0.3372    1.7883 H   0  0  0  0  0  0  0  0  0  0  0  0
   -0.2902   -0.0941    3.9605 H   0  0  0  0  0  0  0  0  0  0  0  0
    3.3325    0.6619    1.7697 H   0  0  0  0  0  0  0  0  0  0  0  0
   -3.3216   -0.6970   -1.7615 H   0  0  0  0  0  0  0  0  0  0  0  0
  1  2  1  0
  2  3  1  0
  2  4  1  0
  2  5  1  0
  5  6  2  0
  6  7  1  0
  7  8  2  0
  8  9  1  0
  9 10  2  0
 10 11  1  0
 11 12  2  0
 12 13  1  0
 13 14  1  0
 13 15  1  0
 13 16  1  0
 12 17  1  0
 17 18  2  0
  8 19  1  0
 19 20  2  0
 20  5  1  0
 18  9  1  0
  6 21  1  0
  7 22  1  0
 10 23  1  0
 11 24  1  0
 17 25  1  0
 20 26  1  0
M  END
$$$$

     RDKit          3D

 26 27  0  0  0  0  0  0  0  0999 V2000
    5.0942    1.6509   -1.4847 F   0  0  0  0  0  0  0  0  0  0  0  0
    4.3229    0.8582   -2.2461 C   0  0  0  0  0  0  0  0  0  0  0  0
    4.1344    1.5326   -3.3902 F   0  0  0  0  0  0  0  0  0  0  0  0
    5.0444   -0.2332   -2.5368 F   0  0  0  0  0  0  0  0  0  0  0  0
    3.0265    0.5321   -1.5712 C   0  0  0  0  0  0  0  0  0  0  0  0
    2.6936   -0.7566   -1.1871 C   0  0  0  0  0  0  0  0  0  0  0  0
    1.4890   -0.9632   -0.5664 C   0  0  0  0  0  0  0  0  0  0  0  0
    0.6421    0.1105   -0.3434 C   0  0  0  0  0  0  0  0  0  0  0  0
   -0.6519   -0.0812    0.3298 C   0  0  0  0  0  0  0  0  0  0  0  0
   -1.5447    0.9666    0.4830 C   0  0  0  0  0  0  0  0  0  0  0  0
   -2.7420    0.7478    1.1204 C   0  0  0  0  0  0  0  0  0  0  0  0
   -3.0171   -0.5267    1.5889 C   0  0  0  0  0  0  0  0  0  0  0  0
   -4.3026   -0.8773    2.2743 C   0  0  0  0  0  0  0  0  0  0  0  0
   -5.0583    0.1953    2.5482 F   0  0  0  0  0  0  0  0  0  0  0  0
   -4.0909   -1.5267    3.4270 F   0  0  0  0  0  0  0  0  0  0  0  0
   -5.0493   -1.7086    1.5226 F   0  0  0  0  0  0  0  0  0  0  0  0
   -2.0672   -1.5225    1.3952 C   0  0  0  0  0  0  0  0  0  0  0  0
   -0.9247   -1.3102    0.7833 N   0  0  0  0  0  0  0  0  0  0  0  0
    0.9641    1.3513   -0.7228 N   0  0  0  0  0  0  0  0  0  0  0  0
    2.1213    1.5543   -1.3113 C   0  0  0  0  0  0  0  0  0  0  0  0
    3.3639   -1.5860   -1.3709 H   0  0  0  0  0  0  0  0  0  0  0  0
    1.1969   -1.9504   -0.2462 H   0  0  0  0  0  0  0  0  0  0  0  0
   -1.2935    1.9453    0.1025 H   0  0  0  0  0  0  0  0  0  0  0  0
   -3.4505    1.5556    1.2529 H   0  0  0  0  0  0  0  0  0  0  0  0
   -2.2453   -2.5420    1.7437 H   0  0  0  0  0  0  0  0  0  0  0  0
    2.3447    2.5839   -1.5948 H   0  0  0  0  0  0  0  0  0  0  0  0
  1  2  1  0
  2  3  1  0
  2  4  1  0
  2  5  1  0
  5  6  2  0
  6  7  1  0
  7  8  2  0
  8  9  1  0
  9 10  2  0
 10 11  1  0
 11 12  2  0
 12 13  1  0
 13 14  1  0
 13 15  1  0
 13 16  1  0
 12 17  1  0
 17 18  2  0
  8 19  1  0
 19 20  2  0
 20  5  1  0
 18  9  1  0
  6 21  1  0
  7 22  1  0
 10 23  1  0
 11 24  1  0
 17 25  1  0
 20 26  1  0
M  END
$$$$

     RDKit          3D

 26 27  0  0  0  0  0  0  0  0999 V2000
   -3.9756    0.2630    4.0122 F   0  0  0  0  0  0  0  0  0  0  0  0
   -3.8830   -0.6117    3.0011 C   0  0  0  0  0  0  0  0  0  0  0  0
   -5.0200   -0.5292    2.2932 F   0  0  0  0  0  0  0  0  0  0  0  0
   -3.8861   -1.8411    3.5395 F   0  0  0  0  0  0  0  0  0  0  0  0
   -2.6755   -0.3823    2.1449 C   0  0  0  0  0  0  0  0  0  0  0  0
   -1.7516    0.6155    2.4149 C   0  0  0  0  0  0  0  0  0  0  0  0
   -0.6804    0.7665    1.5710 C   0  0  0  0  0  0  0  0  0  0  0  0
   -0.5453   -0.0826    0.4864 C   0  0  0  0  0  0  0  0  0  0  0  0
    0.5838    0.0544   -0.4458 C   0  0  0  0  0  0  0  0  0  0  0  0
    0.7811   -0.8665   -1.4601 C   0  0  0  0  0  0  0  0  0  0  0  0
    1.8363   -0.7059   -2.3213 C   0  0  0  0  0  0  0  0  0  0  0  0
    2.6699    0.3887   -2.1529 C   0  0  0  0  0  0  0  0  0  0  0  0
    3.8254    0.6675   -3.0642 C   0  0  0  0  0  0  0  0  0  0  0  0
    4.0433   -0.3273   -3.9358 F   0  0  0  0  0  0  0  0  0  0  0  0
    4.9641    0.8636   -2.3849 F   0  0  0  0  0  0  0  0  0  0  0  0
    3.6346    1.7874   -3.7805 F   0  0  0  0  0  0  0  0  0  0  0  0
    2.4068    1.2642   -1.1056 C   0  0  0  0  0  0  0  0  0  0  0  0
    1.4003    1.1007   -0.2780 N   0  0  0  0  0  0  0  0  0  0  0  0
   -1.4328   -1.0534    0.2373 N   0  0  0  0  0  0  0  0  0  0  0  0
   -2.4654   -1.1955    1.0364 C   0  0  0  0  0  0  0  0  0  0  0  0
   -1.8665    1.2656    3.2746 H   0  0  0  0  0  0  0  0  0  0  0  0
    0.0559    1.5379    1.7450 H   0  0  0  0  0  0  0  0  0  0  0  0
    0.1059   -1.7034   -1.5622 H   0  0  0  0  0  0  0  0  0  0  0  0
    2.0051   -1.4219   -3.1161 H   0  0  0  0  0  0  0  0  0  0  0  0
    3.0374    2.1380   -0.9339 H   0  0  0  0  0  0  0  0  0  0  0  0
   -3.1673   -1.9923    0.7852 H   0  0  0  0  0  0  0  0  0  0  0  0
  1  2  1  0
  2  3  1  0
  2  4  1  0
  2  5  1  0
  5  6  2  0
  6  7  1  0
  7  8  2  0
  8  9  1  0
  9 10  2  0
 10 11  1  0
 11 12  2  0
 12 13  1  0
 13 14  1  0
 13 15  1  0
 13 16  1  0
 12 17  1  0
 17 18  2  0
  8 19  1  0
 19 20  2  0
 20  5  1  0
 18  9  1  0
  6 21  1  0
  7 22  1  0
 10 23  1  0
 11 24  1  0
 17 25  1  0
 20 26  1  0
M  END
$$$$

     RDKit          3D

 26 27  0  0  0  0  0  0  0  0999 V2000
   -2.6911    2.0682   -4.5194 F   0  0  0  0  0  0  0  0  0  0  0  0
   -2.6186    2.6013   -3.2931 C   0  0  0  0  0  0  0  0  0  0  0  0
   -2.1112    3.8371   -3.4212 F   0  0  0  0  0  0  0  0  0  0  0  0
   -3.8771    2.7727   -2.8555 F   0  0  0  0  0  0  0  0  0  0  0  0
   -1.8127    1.7674   -2.3479 C   0  0  0  0  0  0  0  0  0  0  0  0
   -1.2106    0.5808   -2.7337 C   0  0  0  0  0  0  0  0  0  0  0  0
   -0.4923   -0.1225   -1.8013 C   0  0  0  0  0  0  0  0  0  0  0  0
   -0.3851    0.3666   -0.5103 C   0  0  0  0  0  0  0  0  0  0  0  0
    0.3793   -0.3634    0.5149 C   0  0  0  0  0  0  0  0  0  0  0  0
    0.4956    0.1279    1.8041 C   0  0  0  0  0  0  0  0  0  0  0  0
    1.2171   -0.5774    2.7341 C   0  0  0  0  0  0  0  0  0  0  0  0
    1.8094   -1.7694    2.3488 C   0  0  0  0  0  0  0  0  0  0  0  0
    2.6176   -2.6070    3.2901 C   0  0  0  0  0  0  0  0  0  0  0  0
    2.6083   -2.1318    4.5437 F   0  0  0  0  0  0  0  0  0  0  0  0
    3.9018   -2.6876    2.9053 F   0  0  0  0  0  0  0  0  0  0  0  0
    2.1771   -3.8734    3.3371 F   0  0  0  0  0  0  0  0  0  0  0  0
    1.6478   -2.1933    1.0356 C   0  0  0  0  0  0  0  0  0  0  0  0
    0.9544   -1.5158    0.1505 N   0  0  0  0  0  0  0  0  0  0  0  0
   -0.9678    1.5155   -0.1447 N   0  0  0  0  0  0  0  0  0  0  0  0
   -1.6556    2.1927   -1.0348 C   0  0  0  0  0  0  0  0  0  0  0  0
   -1.3047    0.2099   -3.7457 H   0  0  0  0  0  0  0  0  0  0  0  0
   -0.0079   -1.0502   -2.0660 H   0  0  0  0  0  0  0  0  0  0  0  0
    0.0194    1.0594    2.0660 H   0  0  0  0  0  0  0  0  0  0  0  0
    1.3183   -0.2063    3.7456 H   0  0  0  0  0  0  0  0  0  0  0  0
    2.0993   -3.1256    0.6902 H   0  0  0  0  0  0  0  0  0  0  0  0
   -2.1107    3.1241   -0.6925 H   0  0  0  0  0  0  0  0  0  0  0  0
  1  2  1  0
  2  3  1  0
  2  4  1  0
  2  5  1  0
  5  6  2  0
  6  7  1  0
  7  8  2  0
  8  9  1  0
  9 10  2  0
 10 11  1  0
 11 12  2  0
 12 13  1  0
 13 14  1  0
 13 15  1  0
 13 16  1  0
 12 17  1  0
 17 18  2  0
  8 19  1  0
 19 20  2  0
 20  5  1  0
 18  9  1  0
  6 21  1  0
  7 22  1  0
 10 23  1  0
 11 24  1  0
 17 25  1  0
 20 26  1  0
M  END
$$$$

     RDKit          3D

 26 27  0  0  0  0  0  0  0  0999 V2000
    4.0078    3.5921    1.3190 F   0  0  0  0  0  0  0  0  0  0  0  0
    4.1546    2.2627    1.4449 C   0  0  0  0  0  0  0  0  0  0  0  0
    5.1858    1.9415    0.6471 F   0  0  0  0  0  0  0  0  0  0  0  0
    4.5363    2.0238    2.7052 F   0  0  0  0  0  0  0  0  0  0  0  0
    2.9059    1.5272    1.0666 C   0  0  0  0  0  0  0  0  0  0  0  0
    2.2179    0.7190    1.9581 C   0  0  0  0  0  0  0  0  0  0  0  0
    1.0757    0.0923    1.5281 C   0  0  0  0  0  0  0  0  0  0  0  0
    0.6341    0.2934    0.2313 C   0  0  0  0  0  0  0  0  0  0  0  0
   -0.6025   -0.3383   -0.2532 C   0  0  0  0  0  0  0  0  0  0  0  0
   -1.0327   -0.1543   -1.5560 C   0  0  0  0  0  0  0  0  0  0  0  0
   -2.2001   -0.7460   -1.9701 C   0  0  0  0  0  0  0  0  0  0  0  0
   -2.9104   -1.5185   -1.0644 C   0  0  0  0  0  0  0  0  0  0  0  0
   -4.1949   -2.2038   -1.4184 C   0  0  0  0  0  0  0  0  0  0  0  0
   -5.1950   -1.8392   -0.6010 F   0  0  0  0  0  0  0  0  0  0  0  0
   -4.0994   -3.5378   -1.2922 F   0  0  0  0  0  0  0  0  0  0  0  0
   -4.5920   -1.9488   -2.6719 F   0  0  0  0  0  0  0  0  0  0  0  0
   -2.4043   -1.6627    0.2216 C   0  0  0  0  0  0  0  0  0  0  0  0
   -1.2893   -1.0910    0.6160 N   0  0  0  0  0  0  0  0  0  0  0  0
    1.3087    1.0644   -0.6293 N   0  0  0  0  0  0  0  0  0  0  0  0
    2.4088    1.6575   -0.2246 C   0  0  0  0  0  0  0  0  0  0  0  0
    2.5695    0.5781    2.9724 H   0  0  0  0  0  0  0  0  0  0  0  0
    0.5162   -0.5509    2.1914 H   0  0  0  0  0  0  0  0  0  0  0  0
   -0.4509    0.4512   -2.2357 H   0  0  0  0  0  0  0  0  0  0  0  0
   -2.5521   -0.6092   -2.9839 H   0  0  0  0  0  0  0  0  0  0  0  0
   -2.9272   -2.2709    0.9620 H   0  0  0  0  0  0  0  0  0  0  0  0
    2.9292    2.2681   -0.9631 H   0  0  0  0  0  0  0  0  0  0  0  0
  1  2  1  0
  2  3  1  0
  2  4  1  0
  2  5  1  0
  5  6  2  0
  6  7  1  0
  7  8  2  0
  8  9  1  0
  9 10  2  0
 10 11  1  0
 11 12  2  0
 12 13  1  0
 13 14  1  0
 13 15  1  0
 13 16  1  0
 12 17  1  0
 17 18  2  0
  8 19  1  0
 19 20  2  0
 20  5  1  0
 18  9  1  0
  6 21  1  0
  7 22  1  0
 10 23  1  0
 11 24  1  0
 17 25  1  0
 20 26  1  0
M  END
$$$$

     RDKit          3D

 26 27  0  0  0  0  0  0  0  0999 V2000
    1.1884    0.3613   -5.5088 F   0  0  0  0  0  0  0  0  0  0  0  0
    1.8354    0.9536   -4.4953 C   0  0  0  0  0  0  0  0  0  0  0  0
    3.1166    0.5573   -4.5548 F   0  0  0  0  0  0  0  0  0  0  0  0
    1.8555    2.2714   -4.7449 F   0  0  0  0  0  0  0  0  0  0  0  0
    1.2234    0.6391   -3.1653 C   0  0  0  0  0  0  0  0  0  0  0  0
    0.1409   -0.2166   -3.0331 C   0  0  0  0  0  0  0  0  0  0  0  0
   -0.3462   -0.4701   -1.7764 C   0  0  0  0  0  0  0  0  0  0  0  0
    0.2489    0.1298   -0.6801 C   0  0  0  0  0  0  0  0  0  0  0  0
   -0.2429   -0.1296    0.6829 C   0  0  0  0  0  0  0  0  0  0  0  0
    0.3151    0.5115    1.7755 C   0  0  0  0  0  0  0  0  0  0  0  0
   -0.1690    0.2503    3.0323 C   0  0  0  0  0  0  0  0  0  0  0  0
   -1.2131   -0.6513    3.1666 C   0  0  0  0  0  0  0  0  0  0  0  0
   -1.8308   -0.9662    4.4935 C   0  0  0  0  0  0  0  0  0  0  0  0
   -1.0952   -0.5303    5.5233 F   0  0  0  0  0  0  0  0  0  0  0  0
   -2.0248   -2.2797    4.6607 F   0  0  0  0  0  0  0  0  0  0  0  0
   -3.0470   -0.4013    4.6153 F   0  0  0  0  0  0  0  0  0  0  0  0
   -1.7147   -1.2556    2.0206 C   0  0  0  0  0  0  0  0  0  0  0  0
   -1.2487   -1.0020    0.8194 N   0  0  0  0  0  0  0  0  0  0  0  0
    1.2883    0.9622   -0.8143 N   0  0  0  0  0  0  0  0  0  0  0  0
    1.7600    1.2067   -2.0165 C   0  0  0  0  0  0  0  0  0  0  0  0
   -0.3157   -0.6749   -3.9004 H   0  0  0  0  0  0  0  0  0  0  0  0
   -1.1844   -1.1327   -1.6336 H   0  0  0  0  0  0  0  0  0  0  0  0
    1.1260    1.2091    1.6315 H   0  0  0  0  0  0  0  0  0  0  0  0
    0.2564    0.7447    3.8970 H   0  0  0  0  0  0  0  0  0  0  0  0
   -2.5350   -1.9724    2.0768 H   0  0  0  0  0  0  0  0  0  0  0  0
    2.6126    1.8858   -2.0720 H   0  0  0  0  0  0  0  0  0  0  0  0
  1  2  1  0
  2  3  1  0
  2  4  1  0
  2  5  1  0
  5  6  2  0
  6  7  1  0
  7  8  2  0
  8  9  1  0
  9 10  2  0
 10 11  1  0
 11 12  2  0
 12 13  1  0
 13 14  1  0
 13 15  1  0
 13 16  1  0
 12 17  1  0
 17 18  2  0
  8 19  1  0
 19 20  2  0
 20  5  1  0
 18  9  1  0
  6 21  1  0
  7 22  1  0
 10 23  1  0
 11 24  1  0
 17 25  1  0
 20 26  1  0
M  END
$$$$

     RDKit          3D

 26 27  0  0  0  0  0  0  0  0999 V2000
   -2.7615   -4.8082   -0.1800 F   0  0  0  0  0  0  0  0  0  0  0  0
   -3.0610   -3.7618   -0.9665 C   0  0  0  0  0  0  0  0  0  0  0  0
   -4.3677   -3.5052   -0.8103 F   0  0  0  0  0  0  0  0  0  0  0  0
   -2.8839   -4.1956   -2.2233 F   0  0  0  0  0  0  0  0  0  0  0  0
   -2.1990   -2.5763   -0.6587 C   0  0  0  0  0  0  0  0  0  0  0  0
   -2.7156   -1.3702   -0.2139 C   0  0  0  0  0  0  0  0  0  0  0  0
   -1.8470   -0.3389    0.0448 C   0  0  0  0  0  0  0  0  0  0  0  0
   -0.4887   -0.5309   -0.1408 C   0  0  0  0  0  0  0  0  0  0  0  0
    0.4774    0.5453    0.1318 C   0  0  0  0  0  0  0  0  0  0  0  0
    1.8296    0.3645   -0.1087 C   0  0  0  0  0  0  0  0  0  0  0  0
    2.7061    1.3855    0.1601 C   0  0  0  0  0  0  0  0  0  0  0  0
    2.2025    2.5724    0.6664 C   0  0  0  0  0  0  0  0  0  0  0  0
    3.0730    3.7475    0.9892 C   0  0  0  0  0  0  0  0  0  0  0  0
    2.7279    4.8321    0.2749 F   0  0  0  0  0  0  0  0  0  0  0  0
    2.9558    4.1132    2.2739 F   0  0  0  0  0  0  0  0  0  0  0  0
    4.3715    3.5095    0.7543 F   0  0  0  0  0  0  0  0  0  0  0  0
    0.8332    2.6720    0.8837 C   0  0  0  0  0  0  0  0  0  0  0  0
   -0.0031    1.6946    0.6189 N   0  0  0  0  0  0  0  0  0  0  0  0
    0.0050   -1.6987   -0.5746 N   0  0  0  0  0  0  0  0  0  0  0  0
   -0.8232   -2.6855   -0.8242 C   0  0  0  0  0  0  0  0  0  0  0  0
   -3.7796   -1.2366   -0.0709 H   0  0  0  0  0  0  0  0  0  0  0  0
   -2.2180    0.6163    0.3909 H   0  0  0  0  0  0  0  0  0  0  0  0
    2.1816   -0.5760   -0.4999 H   0  0  0  0  0  0  0  0  0  0  0  0
    3.7656    1.2605   -0.0256 H   0  0  0  0  0  0  0  0  0  0  0  0
    0.3976    3.5873    1.2883 H   0  0  0  0  0  0  0  0  0  0  0  0
   -0.3785   -3.6168   -1.1798 H   0  0  0  0  0  0  0  0  0  0  0  0
  1  2  1  0
  2  3  1  0
  2  4  1  0
  2  5  1  0
  5  6  2  0
  6  7  1  0
  7  8  2  0
  8  9  1  0
  9 10  2  0
 10 11  1  0
 11 12  2  0
 12 13  1  0
 13 14  1  0
 13 15  1  0
 13 16  1  0
 12 17  1  0
 17 18  2  0
  8 19  1  0
 19 20  2  0
 20  5  1  0
 18  9  1  0
  6 21  1  0
  7 22  1  0
 10 23  1  0
 11 24  1  0
 17 25  1  0
 20 26  1  0
M  END
$$$$

     RDKit          3D

 26 27  0  0  0  0  0  0  0  0999 V2000
    5.1099    2.1329   -0.3742 F   0  0  0  0  0  0  0  0  0  0  0  0
    4.4244    2.0708    0.7754 C   0  0  0  0  0  0  0  0  0  0  0  0
    4.4068    3.3035    1.3021 F   0  0  0  0  0  0  0  0  0  0  0  0
    5.1633    1.2973    1.5906 F   0  0  0  0  0  0  0  0  0  0  0  0
    3.0524    1.5051    0.5746 C   0  0  0  0  0  0  0  0  0  0  0  0
    1.9016    2.1894    0.9302 C   0  0  0  0  0  0  0  0  0  0  0  0
    0.6869    1.5900    0.7106 C   0  0  0  0  0  0  0  0  0  0  0  0
    0.6424    0.3272    0.1425 C   0  0  0  0  0  0  0  0  0  0  0  0
   -0.6428   -0.3426   -0.1148 C   0  0  0  0  0  0  0  0  0  0  0  0
   -0.6859   -1.6363   -0.6075 C   0  0  0  0  0  0  0  0  0  0  0  0
   -1.9020   -2.2257   -0.8477 C   0  0  0  0  0  0  0  0  0  0  0  0
   -3.0530   -1.4992   -0.5863 C   0  0  0  0  0  0  0  0  0  0  0  0
   -4.4244   -2.0462   -0.8314 C   0  0  0  0  0  0  0  0  0  0  0  0
   -4.4072   -3.3058   -1.2863 F   0  0  0  0  0  0  0  0  0  0  0  0
   -5.1704   -2.0301    0.2845 F   0  0  0  0  0  0  0  0  0  0  0  0
   -5.1021   -1.3078   -1.7236 F   0  0  0  0  0  0  0  0  0  0  0  0
   -2.9238   -0.2121   -0.0808 C   0  0  0  0  0  0  0  0  0  0  0  0
   -1.7577    0.3490    0.1478 N   0  0  0  0  0  0  0  0  0  0  0  0
    1.7581   -0.3300   -0.1954 N   0  0  0  0  0  0  0  0  0  0  0  0
    2.9227    0.2414    0.0100 C   0  0  0  0  0  0  0  0  0  0  0  0
    1.9528    3.1737    1.3783 H   0  0  0  0  0  0  0  0  0  0  0  0
   -0.2307    2.0947    0.9735 H   0  0  0  0  0  0  0  0  0  0  0  0
    0.2345   -2.1656   -0.8025 H   0  0  0  0  0  0  0  0  0  0  0  0
   -1.9568   -3.2373   -1.2293 H   0  0  0  0  0  0  0  0  0  0  0  0
   -3.8036    0.3921    0.1478 H   0  0  0  0  0  0  0  0  0  0  0  0
    3.8044   -0.3283   -0.2883 H   0  0  0  0  0  0  0  0  0  0  0  0
  1  2  1  0
  2  3  1  0
  2  4  1  0
  2  5  1  0
  5  6  2  0
  6  7  1  0
  7  8  2  0
  8  9  1  0
  9 10  2  0
 10 11  1  0
 11 12  2  0
 12 13  1  0
 13 14  1  0
 13 15  1  0
 13 16  1  0
 12 17  1  0
 17 18  2  0
  8 19  1  0
 19 20  2  0
 20  5  1  0
 18  9  1  0
  6 21  1  0
  7 22  1  0
 10 23  1  0
 11 24  1  0
 17 25  1  0
 20 26  1  0
M  END
$$$$

     RDKit          3D

 26 27  0  0  0  0  0  0  0  0999 V2000
    4.7435   -0.6636    2.9952 F   0  0  0  0  0  0  0  0  0  0  0  0
    3.5994   -1.3509    3.1122 C   0  0  0  0  0  0  0  0  0  0  0  0
    3.1861   -1.2384    4.3827 F   0  0  0  0  0  0  0  0  0  0  0  0
    3.9022   -2.6495    2.9394 F   0  0  0  0  0  0  0  0  0  0  0  0
    2.5514   -0.8931    2.1445 C   0  0  0  0  0  0  0  0  0  0  0  0
    2.8459   -0.0578    1.0782 C   0  0  0  0  0  0  0  0  0  0  0  0
    1.8335    0.2982    0.2251 C   0  0  0  0  0  0  0  0  0  0  0  0
    0.5506   -0.1734    0.4541 C   0  0  0  0  0  0  0  0  0  0  0  0
   -0.5622    0.1933   -0.4365 C   0  0  0  0  0  0  0  0  0  0  0  0
   -1.8492   -0.2573   -0.1927 C   0  0  0  0  0  0  0  0  0  0  0  0
   -2.8617    0.0950   -1.0486 C   0  0  0  0  0  0  0  0  0  0  0  0
   -2.5574    0.8985   -2.1357 C   0  0  0  0  0  0  0  0  0  0  0  0
   -3.5853    1.3217   -3.1383 C   0  0  0  0  0  0  0  0  0  0  0  0
   -3.5905    2.6500   -3.3201 F   0  0  0  0  0  0  0  0  0  0  0  0
   -3.3384    0.7933   -4.3486 F   0  0  0  0  0  0  0  0  0  0  0  0
   -4.8276    0.9577   -2.7901 F   0  0  0  0  0  0  0  0  0  0  0  0
   -1.2422    1.3137   -2.3053 C   0  0  0  0  0  0  0  0  0  0  0  0
   -0.2755    0.9759   -1.4824 N   0  0  0  0  0  0  0  0  0  0  0  0
    0.2698   -0.9802    1.4848 N   0  0  0  0  0  0  0  0  0  0  0  0
    1.2412   -1.3273    2.3017 C   0  0  0  0  0  0  0  0  0  0  0  0
    3.8523    0.3127    0.9218 H   0  0  0  0  0  0  0  0  0  0  0  0
    2.0283    0.9429   -0.6194 H   0  0  0  0  0  0  0  0  0  0  0  0
   -2.0424   -0.8864    0.6629 H   0  0  0  0  0  0  0  0  0  0  0  0
   -3.8729   -0.2464   -0.8715 H   0  0  0  0  0  0  0  0  0  0  0  0
   -0.9631    1.9543   -3.1434 H   0  0  0  0  0  0  0  0  0  0  0  0
    0.9640   -1.9830    3.1298 H   0  0  0  0  0  0  0  0  0  0  0  0
  1  2  1  0
  2  3  1  0
  2  4  1  0
  2  5  1  0
  5  6  2  0
  6  7  1  0
  7  8  2  0
  8  9  1  0
  9 10  2  0
 10 11  1  0
 11 12  2  0
 12 13  1  0
 13 14  1  0
 13 15  1  0
 13 16  1  0
 12 17  1  0
 17 18  2  0
  8 19  1  0
 19 20  2  0
 20  5  1  0
 18  9  1  0
  6 21  1  0
  7 22  1  0
 10 23  1  0
 11 24  1  0
 17 25  1  0
 20 26  1  0
M  END
$$$$

     RDKit          3D

 26 27  0  0  0  0  0  0  0  0999 V2000
    0.9843   -3.1386    4.6024 F   0  0  0  0  0  0  0  0  0  0  0  0
    1.2114   -1.8292    4.4335 C   0  0  0  0  0  0  0  0  0  0  0  0
    0.5325   -1.1833    5.3980 F   0  0  0  0  0  0  0  0  0  0  0  0
    2.5082   -1.6096    4.6960 F   0  0  0  0  0  0  0  0  0  0  0  0
    0.8257   -1.3448    3.0707 C   0  0  0  0  0  0  0  0  0  0  0  0
    0.1492   -2.1429    2.1624 C   0  0  0  0  0  0  0  0  0  0  0  0
   -0.1847   -1.6104    0.9427 C   0  0  0  0  0  0  0  0  0  0  0  0
    0.1627   -0.3021    0.6501 C   0  0  0  0  0  0  0  0  0  0  0  0
   -0.1750    0.3010   -0.6491 C   0  0  0  0  0  0  0  0  0  0  0  0
    0.2449    1.5810   -0.9698 C   0  0  0  0  0  0  0  0  0  0  0  0
   -0.0749    2.1106   -2.1938 C   0  0  0  0  0  0  0  0  0  0  0  0
   -0.8204    1.3419   -3.0734 C   0  0  0  0  0  0  0  0  0  0  0  0
   -1.2287    1.8433   -4.4234 C   0  0  0  0  0  0  0  0  0  0  0  0
   -0.8762    0.9943   -5.4020 F   0  0  0  0  0  0  0  0  0  0  0  0
   -0.6979    3.0375   -4.7161 F   0  0  0  0  0  0  0  0  0  0  0  0
   -2.5623    1.9680   -4.5190 F   0  0  0  0  0  0  0  0  0  0  0  0
   -1.2065    0.0677   -2.6739 C   0  0  0  0  0  0  0  0  0  0  0  0
   -0.8936   -0.4386   -1.5023 N   0  0  0  0  0  0  0  0  0  0  0  0
    0.8196    0.4620    1.5300 N   0  0  0  0  0  0  0  0  0  0  0  0
    1.1397   -0.0436    2.6995 C   0  0  0  0  0  0  0  0  0  0  0  0
   -0.1096   -3.1660    2.4041 H   0  0  0  0  0  0  0  0  0  0  0  0
   -0.7104   -2.1997    0.2078 H   0  0  0  0  0  0  0  0  0  0  0  0
    0.8218    2.1498   -0.2564 H   0  0  0  0  0  0  0  0  0  0  0  0
    0.2556    3.1056   -2.4638 H   0  0  0  0  0  0  0  0  0  0  0  0
   -1.7947   -0.5722   -3.3339 H   0  0  0  0  0  0  0  0  0  0  0  0
    1.6790    0.6183    3.3797 H   0  0  0  0  0  0  0  0  0  0  0  0
  1  2  1  0
  2  3  1  0
  2  4  1  0
  2  5  1  0
  5  6  2  0
  6  7  1  0
  7  8  2  0
  8  9  1  0
  9 10  2  0
 10 11  1  0
 11 12  2  0
 12 13  1  0
 13 14  1  0
 13 15  1  0
 13 16  1  0
 12 17  1  0
 17 18  2  0
  8 19  1  0
 19 20  2  0
 20  5  1  0
 18  9  1  0
  6 21  1  0
  7 22  1  0
 10 23  1  0
 11 24  1  0
 17 25  1  0
 20 26  1  0
M  END
$$$$

     RDKit          3D

 26 27  0  0  0  0  0  0  0  0999 V2000
    0.5702   -4.9914    2.3738 F   0  0  0  0  0  0  0  0  0  0  0  0
    1.4883   -4.4569    1.5516 C   0  0  0  0  0  0  0  0  0  0  0  0
    1.7170   -5.3541    0.5829 F   0  0  0  0  0  0  0  0  0  0  0  0
    2.6078   -4.3527    2.2810 F   0  0  0  0  0  0  0  0  0  0  0  0
    1.0461   -3.1311    1.0145 C   0  0  0  0  0  0  0  0  0  0  0  0
    0.7607   -2.9338   -0.3265 C   0  0  0  0  0  0  0  0  0  0  0  0
    0.3620   -1.6877   -0.7358 C   0  0  0  0  0  0  0  0  0  0  0  0
    0.2440   -0.6673    0.1930 C   0  0  0  0  0  0  0  0  0  0  0  0
   -0.1896    0.6787   -0.2124 C   0  0  0  0  0  0  0  0  0  0  0  0
   -0.4117    1.6720    0.7277 C   0  0  0  0  0  0  0  0  0  0  0  0
   -0.8301    2.9100    0.3183 C   0  0  0  0  0  0  0  0  0  0  0  0
   -1.0170    3.1320   -1.0400 C   0  0  0  0  0  0  0  0  0  0  0  0
   -1.5160    4.4539   -1.5356 C   0  0  0  0  0  0  0  0  0  0  0  0
   -0.9824    5.4794   -0.8655 F   0  0  0  0  0  0  0  0  0  0  0  0
   -1.2639    4.6420   -2.8389 F   0  0  0  0  0  0  0  0  0  0  0  0
   -2.8461    4.5672   -1.3755 F   0  0  0  0  0  0  0  0  0  0  0  0
   -0.7596    2.0902   -1.9191 C   0  0  0  0  0  0  0  0  0  0  0  0
   -0.3618    0.8999   -1.5177 N   0  0  0  0  0  0  0  0  0  0  0  0
    0.5159   -0.8655    1.4889 N   0  0  0  0  0  0  0  0  0  0  0  0
    0.9084   -2.0552    1.8836 C   0  0  0  0  0  0  0  0  0  0  0  0
    0.8478   -3.7413   -1.0417 H   0  0  0  0  0  0  0  0  0  0  0  0
    0.1343   -1.4945   -1.7736 H   0  0  0  0  0  0  0  0  0  0  0  0
   -0.2595    1.4568    1.7735 H   0  0  0  0  0  0  0  0  0  0  0  0
   -1.0187    3.6995    1.0393 H   0  0  0  0  0  0  0  0  0  0  0  0
   -0.8726    2.2151   -2.9936 H   0  0  0  0  0  0  0  0  0  0  0  0
    1.1268   -2.1652    2.9478 H   0  0  0  0  0  0  0  0  0  0  0  0
  1  2  1  0
  2  3  1  0
  2  4  1  0
  2  5  1  0
  5  6  2  0
  6  7  1  0
  7  8  2  0
  8  9  1  0
  9 10  2  0
 10 11  1  0
 11 12  2  0
 12 13  1  0
 13 14  1  0
 13 15  1  0
 13 16  1  0
 12 17  1  0
 17 18  2  0
  8 19  1  0
 19 20  2  0
 20  5  1  0
 18  9  1  0
  6 21  1  0
  7 22  1  0
 10 23  1  0
 11 24  1  0
 17 25  1  0
 20 26  1  0
M  END
$$$$

     RDKit          3D

 26 27  0  0  0  0  0  0  0  0999 V2000
    0.1234   -0.2642    5.5515 F   0  0  0  0  0  0  0  0  0  0  0  0
    1.0103    0.4323    4.8232 C   0  0  0  0  0  0  0  0  0  0  0  0
    1.0358    1.6812    5.3062 F   0  0  0  0  0  0  0  0  0  0  0  0
    2.2040   -0.1224    5.0886 F   0  0  0  0  0  0  0  0  0  0  0  0
    0.6931    0.3829    3.3597 C   0  0  0  0  0  0  0  0  0  0  0  0
    0.5069    1.5211    2.5909 C   0  0  0  0  0  0  0  0  0  0  0  0
    0.2366    1.3736    1.2530 C   0  0  0  0  0  0  0  0  0  0  0  0
    0.1527    0.1023    0.7119 C   0  0  0  0  0  0  0  0  0  0  0  0
   -0.1444   -0.0956   -0.7149 C   0  0  0  0  0  0  0  0  0  0  0  0
   -0.2341   -1.3681   -1.2524 C   0  0  0  0  0  0  0  0  0  0  0  0
   -0.5200   -1.5185   -2.5867 C   0  0  0  0  0  0  0  0  0  0  0  0
   -0.7089   -0.3812   -3.3566 C   0  0  0  0  0  0  0  0  0  0  0  0
   -1.0093   -0.4377   -4.8235 C   0  0  0  0  0  0  0  0  0  0  0  0
    0.0076    0.0421   -5.5587 F   0  0  0  0  0  0  0  0  0  0  0  0
   -2.0720    0.3155   -5.1459 F   0  0  0  0  0  0  0  0  0  0  0  0
   -1.2512   -1.6834   -5.2518 F   0  0  0  0  0  0  0  0  0  0  0  0
   -0.6025    0.8594   -2.7404 C   0  0  0  0  0  0  0  0  0  0  0  0
   -0.3268    0.9995   -1.4630 N   0  0  0  0  0  0  0  0  0  0  0  0
    0.3353   -0.9932    1.4593 N   0  0  0  0  0  0  0  0  0  0  0  0
    0.5934   -0.8559    2.7391 C   0  0  0  0  0  0  0  0  0  0  0  0
    0.5702    2.5081    3.0301 H   0  0  0  0  0  0  0  0  0  0  0  0
    0.0920    2.2359    0.6199 H   0  0  0  0  0  0  0  0  0  0  0  0
   -0.0743   -2.2288   -0.6191 H   0  0  0  0  0  0  0  0  0  0  0  0
   -0.6016   -2.5075   -3.0190 H   0  0  0  0  0  0  0  0  0  0  0  0
   -0.7482    1.7793   -3.3098 H   0  0  0  0  0  0  0  0  0  0  0  0
    0.7319   -1.7767    3.3082 H   0  0  0  0  0  0  0  0  0  0  0  0
  1  2  1  0
  2  3  1  0
  2  4  1  0
  2  5  1  0
  5  6  2  0
  6  7  1  0
  7  8  2  0
  8  9  1  0
  9 10  2  0
 10 11  1  0
 11 12  2  0
 12 13  1  0
 13 14  1  0
 13 15  1  0
 13 16  1  0
 12 17  1  0
 17 18  2  0
  8 19  1  0
 19 20  2  0
 20  5  1  0
 18  9  1  0
  6 21  1  0
  7 22  1  0
 10 23  1  0
 11 24  1  0
 17 25  1  0
 20 26  1  0
M  END
$$$$
