
     RDKit          3D

 28 29  0  0  0  0  0  0  0  0999 V2000
    0.0505    3.5599    2.9789 C   0  0  0  0  0  0  0  0  0  0  0  0
    0.6267    3.8542    1.7058 O   0  0  0  0  0  0  0  0  0  0  0  0
    0.6938    2.8700    0.7982 C   0  0  0  0  0  0  0  0  0  0  0  0
    1.2422    3.1994   -0.4471 C   0  0  0  0  0  0  0  0  0  0  0  0
    1.3192    2.2136   -1.4096 C   0  0  0  0  0  0  0  0  0  0  0  0
    0.8999    0.9666   -1.2319 N   0  0  0  0  0  0  0  0  0  0  0  0
    0.3790    0.6500   -0.0392 C   0  0  0  0  0  0  0  0  0  0  0  0
   -0.0889   -0.7431    0.1268 C   0  0  0  0  0  0  0  0  0  0  0  0
   -0.2050   -1.5778   -0.9838 C   0  0  0  0  0  0  0  0  0  0  0  0
   -0.6720   -2.8767   -0.7935 C   0  0  0  0  0  0  0  0  0  0  0  0
   -0.8429   -3.7798   -1.7688 O   0  0  0  0  0  0  0  0  0  0  0  0
   -0.5642   -3.3894   -3.1145 C   0  0  0  0  0  0  0  0  0  0  0  0
   -0.9823   -3.2861    0.5091 C   0  0  0  0  0  0  0  0  0  0  0  0
   -0.8160   -2.3821    1.5384 C   0  0  0  0  0  0  0  0  0  0  0  0
   -0.3903   -1.1345    1.3720 N   0  0  0  0  0  0  0  0  0  0  0  0
    0.2625    1.5628    1.0069 C   0  0  0  0  0  0  0  0  0  0  0  0
   -0.9826    3.2299    2.8759 H   0  0  0  0  0  0  0  0  0  0  0  0
    0.6303    2.8042    3.4974 H   0  0  0  0  0  0  0  0  0  0  0  0
    0.0717    4.4859    3.5494 H   0  0  0  0  0  0  0  0  0  0  0  0
    1.5944    4.2025   -0.6350 H   0  0  0  0  0  0  0  0  0  0  0  0
    1.7360    2.4332   -2.3896 H   0  0  0  0  0  0  0  0  0  0  0  0
    0.0756   -1.2077   -1.9601 H   0  0  0  0  0  0  0  0  0  0  0  0
   -0.7836   -4.2541   -3.7376 H   0  0  0  0  0  0  0  0  0  0  0  0
    0.4829   -3.1244   -3.2315 H   0  0  0  0  0  0  0  0  0  0  0  0
   -1.1959   -2.5571   -3.4220 H   0  0  0  0  0  0  0  0  0  0  0  0
   -1.3431   -4.2874    0.6941 H   0  0  0  0  0  0  0  0  0  0  0  0
   -1.0436   -2.6706    2.5621 H   0  0  0  0  0  0  0  0  0  0  0  0
   -0.1544    1.2386    1.9494 H   0  0  0  0  0  0  0  0  0  0  0  0
  1  2  1  0
  2  3  1  0
  3  4  2  0
  4  5  1  0
  5  6  2  0
  6  7  1  0
  7  8  1  0
  8  9  2  0
  9 10  1  0
 10 11  1  0
 11 12  1  0
 10 13  2  0
 13 14  1  0
 14 15  2  0
  7 16  2  0
 16  3  1  0
 15  8  1  0
  1 17  1  0
  1 18  1  0
  1 19  1  0
  4 20  1  0
  5 21  1  0
  9 22  1  0
 12 23  1  0
 12 24  1  0
 12 25  1  0
 13 26  1  0
 14 27  1  0
 16 28  1  0
M  END
$$$$

     RDKit          3D

 28 29  0  0  0  0  0  0  0  0999 V2000
    1.6638   -3.7757   -2.1407 C   0  0  0  0  0  0  0  0  0  0  0  0
    0.5788   -4.0383   -1.2510 O   0  0  0  0  0  0  0  0  0  0  0  0
    0.0266   -3.0027   -0.6019 C   0  0  0  0  0  0  0  0  0  0  0  0
   -1.0054   -3.3019    0.2944 C   0  0  0  0  0  0  0  0  0  0  0  0
   -1.5847   -2.2640    0.9948 C   0  0  0  0  0  0  0  0  0  0  0  0
   -1.2236   -0.9910    0.8762 N   0  0  0  0  0  0  0  0  0  0  0  0
   -0.2379   -0.7029    0.0135 C   0  0  0  0  0  0  0  0  0  0  0  0
    0.1526    0.7200   -0.1040 C   0  0  0  0  0  0  0  0  0  0  0  0
   -0.4342    1.6781    0.7212 C   0  0  0  0  0  0  0  0  0  0  0  0
   -0.0433    3.0082    0.5809 C   0  0  0  0  0  0  0  0  0  0  0  0
   -0.5246    4.0258    1.3091 O   0  0  0  0  0  0  0  0  0  0  0  0
   -1.5086    3.7423    2.3042 C   0  0  0  0  0  0  0  0  0  0  0  0
    0.9245    3.3195   -0.3808 C   0  0  0  0  0  0  0  0  0  0  0  0
    1.4415    2.2925   -1.1432 C   0  0  0  0  0  0  0  0  0  0  0  0
    1.0805    1.0184   -1.0238 N   0  0  0  0  0  0  0  0  0  0  0  0
    0.4124   -1.6715   -0.7477 C   0  0  0  0  0  0  0  0  0  0  0  0
    2.5034   -3.3329   -1.6069 H   0  0  0  0  0  0  0  0  0  0  0  0
    1.3539   -3.1189   -2.9519 H   0  0  0  0  0  0  0  0  0  0  0  0
    1.9657   -4.7344   -2.5542 H   0  0  0  0  0  0  0  0  0  0  0  0
   -1.3270   -4.3253    0.4305 H   0  0  0  0  0  0  0  0  0  0  0  0
   -2.3898   -2.4628    1.6987 H   0  0  0  0  0  0  0  0  0  0  0  0
   -1.1777    1.3792    1.4433 H   0  0  0  0  0  0  0  0  0  0  0  0
   -1.1162    3.0622    3.0573 H   0  0  0  0  0  0  0  0  0  0  0  0
   -1.7596    4.6897    2.7723 H   0  0  0  0  0  0  0  0  0  0  0  0
   -2.4088    3.3197    1.8573 H   0  0  0  0  0  0  0  0  0  0  0  0
    1.2550    4.3401   -0.5124 H   0  0  0  0  0  0  0  0  0  0  0  0
    2.1923    2.5001   -1.9015 H   0  0  0  0  0  0  0  0  0  0  0  0
    1.1903   -1.3733   -1.4336 H   0  0  0  0  0  0  0  0  0  0  0  0
  1  2  1  0
  2  3  1  0
  3  4  2  0
  4  5  1  0
  5  6  2  0
  6  7  1  0
  7  8  1  0
  8  9  2  0
  9 10  1  0
 10 11  1  0
 11 12  1  0
 10 13  2  0
 13 14  1  0
 14 15  2  0
  7 16  2  0
 16  3  1  0
 15  8  1  0
  1 17  1  0
  1 18  1  0
  1 19  1  0
  4 20  1  0
  5 21  1  0
  9 22  1  0
 12 23  1  0
 12 24  1  0
 12 25  1  0
 13 26  1  0
 14 27  1  0
 16 28  1  0
M  END
$$$$

     RDKit          3D

 28 29  0  0  0  0  0  0  0  0999 V2000
    3.1598    1.7110   -3.0564 C   0  0  0  0  0  0  0  0  0  0  0  0
    2.8790    2.6888   -2.0580 O   0  0  0  0  0  0  0  0  0  0  0  0
    2.0011    2.3830   -1.0942 C   0  0  0  0  0  0  0  0  0  0  0  0
    1.7531    3.3616   -0.1312 C   0  0  0  0  0  0  0  0  0  0  0  0
    0.8516    3.0759    0.8746 C   0  0  0  0  0  0  0  0  0  0  0  0
    0.2005    1.9213    0.9869 N   0  0  0  0  0  0  0  0  0  0  0  0
    0.4363    0.9849    0.0626 C   0  0  0  0  0  0  0  0  0  0  0  0
   -0.3022   -0.2923    0.2057 C   0  0  0  0  0  0  0  0  0  0  0  0
   -1.1864   -0.4759    1.2504 C   0  0  0  0  0  0  0  0  0  0  0  0
   -1.8652   -1.6851    1.3593 C   0  0  0  0  0  0  0  0  0  0  0  0
   -2.7180   -1.8224    2.3948 O   0  0  0  0  0  0  0  0  0  0  0  0
   -3.4179   -3.0652    2.5275 C   0  0  0  0  0  0  0  0  0  0  0  0
   -1.6309   -2.6731    0.4046 C   0  0  0  0  0  0  0  0  0  0  0  0
   -0.7225   -2.3843   -0.6025 C   0  0  0  0  0  0  0  0  0  0  0  0
   -0.0715   -1.2462   -0.7188 N   0  0  0  0  0  0  0  0  0  0  0  0
    1.3247    1.1674   -0.9899 C   0  0  0  0  0  0  0  0  0  0  0  0
    3.8900    2.1485   -3.7258 H   0  0  0  0  0  0  0  0  0  0  0  0
    3.5765    0.8100   -2.6114 H   0  0  0  0  0  0  0  0  0  0  0  0
    2.2618    1.4660   -3.6153 H   0  0  0  0  0  0  0  0  0  0  0  0
    2.2588    4.3163   -0.1811 H   0  0  0  0  0  0  0  0  0  0  0  0
    0.6379    3.8159    1.6429 H   0  0  0  0  0  0  0  0  0  0  0  0
   -1.3507    0.3013    1.9822 H   0  0  0  0  0  0  0  0  0  0  0  0
   -4.0387   -3.2504    1.6571 H   0  0  0  0  0  0  0  0  0  0  0  0
   -2.7234   -3.8873    2.6670 H   0  0  0  0  0  0  0  0  0  0  0  0
   -4.0500   -2.9677    3.4117 H   0  0  0  0  0  0  0  0  0  0  0  0
   -2.1263   -3.6423    0.4274 H   0  0  0  0  0  0  0  0  0  0  0  0
   -0.5030   -3.1270   -1.3661 H   0  0  0  0  0  0  0  0  0  0  0  0
    1.4756    0.3674   -1.7041 H   0  0  0  0  0  0  0  0  0  0  0  0
  1  2  1  0
  2  3  1  0
  3  4  2  0
  4  5  1  0
  5  6  2  0
  6  7  1  0
  7  8  1  0
  8  9  2  0
  9 10  1  0
 10 11  1  0
 11 12  1  0
 10 13  2  0
 13 14  1  0
 14 15  2  0
  7 16  2  0
 16  3  1  0
 15  8  1  0
  1 17  1  0
  1 18  1  0
  1 19  1  0
  4 20  1  0
  5 21  1  0
  9 22  1  0
 12 23  1  0
 12 24  1  0
 12 25  1  0
 13 26  1  0
 14 27  1  0
 16 28  1  0
M  END
$$$$

     RDKit          3D

 28 29  0  0  0  0  0  0  0  0999 V2000
    0.3386    2.2139   -4.0624 C   0  0  0  0  0  0  0  0  0  0  0  0
    0.9378    0.9187   -4.0572 O   0  0  0  0  0  0  0  0  0  0  0  0
    0.8661    0.1946   -2.9309 C   0  0  0  0  0  0  0  0  0  0  0  0
    1.4660   -1.0697   -2.9538 C   0  0  0  0  0  0  0  0  0  0  0  0
    1.4126   -1.8388   -1.8096 C   0  0  0  0  0  0  0  0  0  0  0  0
    0.8301   -1.4532   -0.6774 N   0  0  0  0  0  0  0  0  0  0  0  0
    0.2550   -0.2418   -0.6563 C   0  0  0  0  0  0  0  0  0  0  0  0
   -0.3896    0.1713    0.6122 C   0  0  0  0  0  0  0  0  0  0  0  0
   -0.2622   -0.6215    1.7501 C   0  0  0  0  0  0  0  0  0  0  0  0
   -0.8733   -0.1987    2.9290 C   0  0  0  0  0  0  0  0  0  0  0  0
   -0.8320   -0.8623    4.0934 O   0  0  0  0  0  0  0  0  0  0  0  0
   -0.1021   -2.0895    4.1409 C   0  0  0  0  0  0  0  0  0  0  0  0
   -1.5902    1.0043    2.9140 C   0  0  0  0  0  0  0  0  0  0  0  0
   -1.6546    1.7111    1.7312 C   0  0  0  0  0  0  0  0  0  0  0  0
   -1.0794    1.3194    0.5978 N   0  0  0  0  0  0  0  0  0  0  0  0
    0.2506    0.6156   -1.7551 C   0  0  0  0  0  0  0  0  0  0  0  0
    0.7977    2.8576   -3.3152 H   0  0  0  0  0  0  0  0  0  0  0  0
   -0.7356    2.1540   -3.8882 H   0  0  0  0  0  0  0  0  0  0  0  0
    0.5135    2.6313   -5.0517 H   0  0  0  0  0  0  0  0  0  0  0  0
    1.9560   -1.4233   -3.8503 H   0  0  0  0  0  0  0  0  0  0  0  0
    1.8692   -2.8257   -1.7943 H   0  0  0  0  0  0  0  0  0  0  0  0
    0.3039   -1.5404    1.6921 H   0  0  0  0  0  0  0  0  0  0  0  0
   -0.5198   -2.8220    3.4524 H   0  0  0  0  0  0  0  0  0  0  0  0
    0.9480   -1.9253    3.9121 H   0  0  0  0  0  0  0  0  0  0  0  0
   -0.1983   -2.4675    5.1571 H   0  0  0  0  0  0  0  0  0  0  0  0
   -2.0792    1.3587    3.8096 H   0  0  0  0  0  0  0  0  0  0  0  0
   -2.2047    2.6474    1.6824 H   0  0  0  0  0  0  0  0  0  0  0  0
   -0.2243    1.5818   -1.6717 H   0  0  0  0  0  0  0  0  0  0  0  0
  1  2  1  0
  2  3  1  0
  3  4  2  0
  4  5  1  0
  5  6  2  0
  6  7  1  0
  7  8  1  0
  8  9  2  0
  9 10  1  0
 10 11  1  0
 11 12  1  0
 10 13  2  0
 13 14  1  0
 14 15  2  0
  7 16  2  0
 16  3  1  0
 15  8  1  0
  1 17  1  0
  1 18  1  0
  1 19  1  0
  4 20  1  0
  5 21  1  0
  9 22  1  0
 12 23  1  0
 12 24  1  0
 12 25  1  0
 13 26  1  0
 14 27  1  0
 16 28  1  0
M  END
$$$$

     RDKit          3D

 28 29  0  0  0  0  0  0  0  0999 V2000
   -3.8494    3.5465   -0.1530 C   0  0  0  0  0  0  0  0  0  0  0  0
   -2.4662    3.2063   -0.0070 O   0  0  0  0  0  0  0  0  0  0  0  0
   -2.1236    1.9024   -0.0474 C   0  0  0  0  0  0  0  0  0  0  0  0
   -3.0286    0.8600   -0.2377 C   0  0  0  0  0  0  0  0  0  0  0  0
   -2.5190   -0.4296   -0.2607 C   0  0  0  0  0  0  0  0  0  0  0  0
   -1.2441   -0.7350   -0.1266 N   0  0  0  0  0  0  0  0  0  0  0  0
   -0.3745    0.2790    0.0564 C   0  0  0  0  0  0  0  0  0  0  0  0
    1.0561   -0.0722    0.2058 C   0  0  0  0  0  0  0  0  0  0  0  0
    1.4794   -1.3819    0.0178 C   0  0  0  0  0  0  0  0  0  0  0  0
    2.8359   -1.6729    0.1614 C   0  0  0  0  0  0  0  0  0  0  0  0
    3.3763   -2.8894   -0.0026 O   0  0  0  0  0  0  0  0  0  0  0  0
    2.5127   -3.9681   -0.3522 C   0  0  0  0  0  0  0  0  0  0  0  0
    3.7032   -0.6329    0.4974 C   0  0  0  0  0  0  0  0  0  0  0  0
    3.1773    0.6324    0.6647 C   0  0  0  0  0  0  0  0  0  0  0  0
    1.8877    0.9265    0.5251 N   0  0  0  0  0  0  0  0  0  0  0  0
   -0.7758    1.5988    0.1088 C   0  0  0  0  0  0  0  0  0  0  0  0
   -4.2318    3.2155   -1.1120 H   0  0  0  0  0  0  0  0  0  0  0  0
   -3.8998    4.6366   -0.0994 H   0  0  0  0  0  0  0  0  0  0  0  0
   -4.4382    3.1169    0.6515 H   0  0  0  0  0  0  0  0  0  0  0  0
   -4.0992    1.0235   -0.3569 H   0  0  0  0  0  0  0  0  0  0  0  0
   -3.1886   -1.2760   -0.3994 H   0  0  0  0  0  0  0  0  0  0  0  0
    0.7552   -2.1471   -0.2306 H   0  0  0  0  0  0  0  0  0  0  0  0
    2.0149   -3.7747   -1.2983 H   0  0  0  0  0  0  0  0  0  0  0  0
    3.1370   -4.8507   -0.4520 H   0  0  0  0  0  0  0  0  0  0  0  0
    1.7746   -4.1436    0.4276 H   0  0  0  0  0  0  0  0  0  0  0  0
    4.7620   -0.8253    0.6169 H   0  0  0  0  0  0  0  0  0  0  0  0
    3.8274    1.4638    0.9306 H   0  0  0  0  0  0  0  0  0  0  0  0
   -0.0611    2.3915    0.2718 H   0  0  0  0  0  0  0  0  0  0  0  0
  1  2  1  0
  2  3  1  0
  3  4  2  0
  4  5  1  0
  5  6  2  0
  6  7  1  0
  7  8  1  0
  8  9  2  0
  9 10  1  0
 10 11  1  0
 11 12  1  0
 10 13  2  0
 13 14  1  0
 14 15  2  0
  7 16  2  0
 16  3  1  0
 15  8  1  0
  1 17  1  0
  1 18  1  0
  1 19  1  0
  4 20  1  0
  5 21  1  0
  9 22  1  0
 12 23  1  0
 12 24  1  0
 12 25  1  0
 13 26  1  0
 14 27  1  0
 16 28  1  0
M  END
$$$$

     RDKit          3D

 28 29  0  0  0  0  0  0  0  0999 V2000
    3.6471   -2.9541    0.4757 C   0  0  0  0  0  0  0  0  0  0  0  0
    2.4657   -3.5696    0.9853 O   0  0  0  0  0  0  0  0  0  0  0  0
    1.3186   -2.8775    0.9299 C   0  0  0  0  0  0  0  0  0  0  0  0
    0.1752   -3.5051    1.4260 C   0  0  0  0  0  0  0  0  0  0  0  0
   -1.0219   -2.8170    1.3893 C   0  0  0  0  0  0  0  0  0  0  0  0
   -1.1573   -1.5858    0.9077 N   0  0  0  0  0  0  0  0  0  0  0  0
   -0.0605   -0.9836    0.4309 C   0  0  0  0  0  0  0  0  0  0  0  0
   -0.2381    0.3875   -0.1023 C   0  0  0  0  0  0  0  0  0  0  0  0
   -1.4854    0.9799   -0.0966 C   0  0  0  0  0  0  0  0  0  0  0  0
   -1.6266    2.2667   -0.6050 C   0  0  0  0  0  0  0  0  0  0  0  0
   -2.8637    2.8025   -0.5829 O   0  0  0  0  0  0  0  0  0  0  0  0
   -3.0365    4.1202   -1.1179 C   0  0  0  0  0  0  0  0  0  0  0  0
   -0.4990    2.9179   -1.1007 C   0  0  0  0  0  0  0  0  0  0  0  0
    0.7062    2.2315   -1.0554 C   0  0  0  0  0  0  0  0  0  0  0  0
    0.8563    1.0119   -0.5806 N   0  0  0  0  0  0  0  0  0  0  0  0
    1.1926   -1.5839    0.4208 C   0  0  0  0  0  0  0  0  0  0  0  0
    3.8759   -2.0476    1.0279 H   0  0  0  0  0  0  0  0  0  0  0  0
    3.5389   -2.7253   -0.5829 H   0  0  0  0  0  0  0  0  0  0  0  0
    4.4548   -3.6636    0.6039 H   0  0  0  0  0  0  0  0  0  0  0  0
    0.2365   -4.5065    1.8315 H   0  0  0  0  0  0  0  0  0  0  0  0
   -1.9311   -3.2858    1.7656 H   0  0  0  0  0  0  0  0  0  0  0  0
   -2.3480    0.4611    0.2953 H   0  0  0  0  0  0  0  0  0  0  0  0
   -2.7668    4.1495   -2.1677 H   0  0  0  0  0  0  0  0  0  0  0  0
   -2.4505    4.8422   -0.5648 H   0  0  0  0  0  0  0  0  0  0  0  0
   -4.0985    4.3542   -1.0092 H   0  0  0  0  0  0  0  0  0  0  0  0
   -0.5388    3.9252   -1.5120 H   0  0  0  0  0  0  0  0  0  0  0  0
    1.6144    2.7007   -1.4264 H   0  0  0  0  0  0  0  0  0  0  0  0
    2.0405   -1.0456    0.0148 H   0  0  0  0  0  0  0  0  0  0  0  0
  1  2  1  0
  2  3  1  0
  3  4  2  0
  4  5  1  0
  5  6  2  0
  6  7  1  0
  7  8  1  0
  8  9  2  0
  9 10  1  0
 10 11  1  0
 11 12  1  0
 10 13  2  0
 13 14  1  0
 14 15  2  0
  7 16  2  0
 16  3  1  0
 15  8  1  0
  1 17  1  0
  1 18  1  0
  1 19  1  0
  4 20  1  0
  5 21  1  0
  9 22  1  0
 12 23  1  0
 12 24  1  0
 12 25  1  0
 13 26  1  0
 14 27  1  0
 16 28  1  0
M  END
$$$$

     RDKit          3D

 28 29  0  0  0  0  0  0  0  0999 V2000
   -3.0818    2.9120    1.9131 C   0  0  0  0  0  0  0  0  0  0  0  0
   -1.8694    2.7630    2.6541 O   0  0  0  0  0  0  0  0  0  0  0  0
   -0.9261    1.9407    2.1752 C   0  0  0  0  0  0  0  0  0  0  0  0
    0.2506    1.8277    2.9262 C   0  0  0  0  0  0  0  0  0  0  0  0
    1.2429    0.9863    2.4657 C   0  0  0  0  0  0  0  0  0  0  0  0
    1.1559    0.2748    1.3470 N   0  0  0  0  0  0  0  0  0  0  0  0
    0.0277    0.3814    0.6291 C   0  0  0  0  0  0  0  0  0  0  0  0
   -0.0504   -0.4182   -0.6138 C   0  0  0  0  0  0  0  0  0  0  0  0
    1.0305   -1.2059   -1.0043 C   0  0  0  0  0  0  0  0  0  0  0  0
    0.9273   -1.9417   -2.1823 C   0  0  0  0  0  0  0  0  0  0  0  0
    1.8870   -2.7425   -2.6686 O   0  0  0  0  0  0  0  0  0  0  0  0
    3.1081   -2.8527   -1.9355 C   0  0  0  0  0  0  0  0  0  0  0  0
   -0.2599   -1.8541   -2.9188 C   0  0  0  0  0  0  0  0  0  0  0  0
   -1.2715   -1.0482   -2.4370 C   0  0  0  0  0  0  0  0  0  0  0  0
   -1.1905   -0.3409   -1.3146 N   0  0  0  0  0  0  0  0  0  0  0  0
   -1.0389    1.1965    1.0035 C   0  0  0  0  0  0  0  0  0  0  0  0
   -3.6051    1.9616    1.8305 H   0  0  0  0  0  0  0  0  0  0  0  0
   -3.6954    3.6162    2.4717 H   0  0  0  0  0  0  0  0  0  0  0  0
   -2.8858    3.3167    0.9195 H   0  0  0  0  0  0  0  0  0  0  0  0
    0.3669    2.3906    3.8429 H   0  0  0  0  0  0  0  0  0  0  0  0
    2.1699    0.8767    3.0265 H   0  0  0  0  0  0  0  0  0  0  0  0
    1.9206   -1.2261   -0.3943 H   0  0  0  0  0  0  0  0  0  0  0  0
    3.7427   -3.5454   -2.4846 H   0  0  0  0  0  0  0  0  0  0  0  0
    2.9305   -3.2488   -0.9392 H   0  0  0  0  0  0  0  0  0  0  0  0
    3.6126   -1.8892   -1.8686 H   0  0  0  0  0  0  0  0  0  0  0  0
   -0.3703   -2.4074   -3.8412 H   0  0  0  0  0  0  0  0  0  0  0  0
   -2.2081   -0.9614   -2.9840 H   0  0  0  0  0  0  0  0  0  0  0  0
   -1.9200    1.2385    0.3814 H   0  0  0  0  0  0  0  0  0  0  0  0
  1  2  1  0
  2  3  1  0
  3  4  2  0
  4  5  1  0
  5  6  2  0
  6  7  1  0
  7  8  1  0
  8  9  2  0
  9 10  1  0
 10 11  1  0
 11 12  1  0
 10 13  2  0
 13 14  1  0
 14 15  2  0
  7 16  2  0
 16  3  1  0
 15  8  1  0
  1 17  1  0
  1 18  1  0
  1 19  1  0
  4 20  1  0
  5 21  1  0
  9 22  1  0
 12 23  1  0
 12 24  1  0
 12 25  1  0
 13 26  1  0
 14 27  1  0
 16 28  1  0
M  END
$$$$

     RDKit          3D

 28 29  0  0  0  0  0  0  0  0999 V2000
   -4.2883    1.7692    0.2972 C   0  0  0  0  0  0  0  0  0  0  0  0
   -4.1201    0.8192   -0.7580 O   0  0  0  0  0  0  0  0  0  0  0  0
   -2.9141    0.2544   -0.9117 C   0  0  0  0  0  0  0  0  0  0  0  0
   -2.7797   -0.6707   -1.9538 C   0  0  0  0  0  0  0  0  0  0  0  0
   -1.5544   -1.2773   -2.1358 C   0  0  0  0  0  0  0  0  0  0  0  0
   -0.4832   -1.0339   -1.3881 N   0  0  0  0  0  0  0  0  0  0  0  0
   -0.6082   -0.1436   -0.3946 C   0  0  0  0  0  0  0  0  0  0  0  0
    0.5991    0.1176    0.4235 C   0  0  0  0  0  0  0  0  0  0  0  0
    1.7930   -0.5404    0.1369 C   0  0  0  0  0  0  0  0  0  0  0  0
    2.9120   -0.2644    0.9203 C   0  0  0  0  0  0  0  0  0  0  0  0
    4.1186   -0.8209    0.7502 O   0  0  0  0  0  0  0  0  0  0  0  0
    4.2928   -1.7394   -0.3279 C   0  0  0  0  0  0  0  0  0  0  0  0
    2.7830    0.6632    1.9597 C   0  0  0  0  0  0  0  0  0  0  0  0
    1.5546    1.2589    2.1550 C   0  0  0  0  0  0  0  0  0  0  0  0
    0.4755    1.0052    1.4194 N   0  0  0  0  0  0  0  0  0  0  0  0
   -1.8005    0.5227   -0.1176 C   0  0  0  0  0  0  0  0  0  0  0  0
   -3.6364    2.6275    0.1539 H   0  0  0  0  0  0  0  0  0  0  0  0
   -5.3266    2.0937    0.2565 H   0  0  0  0  0  0  0  0  0  0  0  0
   -4.1011    1.3183    1.2692 H   0  0  0  0  0  0  0  0  0  0  0  0
   -3.6207   -0.8951   -2.5965 H   0  0  0  0  0  0  0  0  0  0  0  0
   -1.4197   -2.0059   -2.9311 H   0  0  0  0  0  0  0  0  0  0  0  0
    1.8281   -1.2470   -0.6773 H   0  0  0  0  0  0  0  0  0  0  0  0
    3.6432   -2.6057   -0.2145 H   0  0  0  0  0  0  0  0  0  0  0  0
    5.3309   -2.0650   -0.2873 H   0  0  0  0  0  0  0  0  0  0  0  0
    4.1043   -1.2582   -1.2844 H   0  0  0  0  0  0  0  0  0  0  0  0
    3.6342    0.9059    2.5826 H   0  0  0  0  0  0  0  0  0  0  0  0
    1.4184    1.9857    2.9530 H   0  0  0  0  0  0  0  0  0  0  0  0
   -1.8348    1.2260    0.7011 H   0  0  0  0  0  0  0  0  0  0  0  0
  1  2  1  0
  2  3  1  0
  3  4  2  0
  4  5  1  0
  5  6  2  0
  6  7  1  0
  7  8  1  0
  8  9  2  0
  9 10  1  0
 10 11  1  0
 11 12  1  0
 10 13  2  0
 13 14  1  0
 14 15  2  0
  7 16  2  0
 16  3  1  0
 15  8  1  0
  1 17  1  0
  1 18  1  0
  1 19  1  0
  4 20  1  0
  5 21  1  0
  9 22  1  0
 12 23  1  0
 12 24  1  0
 12 25  1  0
 13 26  1  0
 14 27  1  0
 16 28  1  0
M  END
$$$$

     RDKit          3D

 28 29  0  0  0  0  0  0  0  0999 V2000
    1.7448    2.0067   -3.8087 C   0  0  0  0  0  0  0  0  0  0  0  0
    0.5615    2.6358   -3.3115 O   0  0  0  0  0  0  0  0  0  0  0  0
   -0.0192    2.1115   -2.2209 C   0  0  0  0  0  0  0  0  0  0  0  0
   -1.1880    2.7346   -1.7677 C   0  0  0  0  0  0  0  0  0  0  0  0
   -1.8147    2.2176   -0.6513 C   0  0  0  0  0  0  0  0  0  0  0  0
   -1.3710    1.1675    0.0303 N   0  0  0  0  0  0  0  0  0  0  0  0
   -0.2498    0.5724   -0.4011 C   0  0  0  0  0  0  0  0  0  0  0  0
    0.2308   -0.5920    0.3770 C   0  0  0  0  0  0  0  0  0  0  0  0
   -0.4638   -1.0122    1.5100 C   0  0  0  0  0  0  0  0  0  0  0  0
    0.0280   -2.0999    2.2283 C   0  0  0  0  0  0  0  0  0  0  0  0
   -0.5401   -2.6077    3.3306 O   0  0  0  0  0  0  0  0  0  0  0  0
   -1.7307   -1.9958    3.8248 C   0  0  0  0  0  0  0  0  0  0  0  0
    1.1938   -2.7258    1.7731 C   0  0  0  0  0  0  0  0  0  0  0  0
    1.7982   -2.2336    0.6343 C   0  0  0  0  0  0  0  0  0  0  0  0
    1.3446   -1.1958   -0.0621 N   0  0  0  0  0  0  0  0  0  0  0  0
    0.4550    1.0039   -1.5224 C   0  0  0  0  0  0  0  0  0  0  0  0
    1.5397    0.9838   -4.1118 H   0  0  0  0  0  0  0  0  0  0  0  0
    2.5395    2.0218   -3.0641 H   0  0  0  0  0  0  0  0  0  0  0  0
    2.0625    2.5824   -4.6751 H   0  0  0  0  0  0  0  0  0  0  0  0
   -1.5837    3.5952   -2.2902 H   0  0  0  0  0  0  0  0  0  0  0  0
   -2.7277    2.6741   -0.2750 H   0  0  0  0  0  0  0  0  0  0  0  0
   -1.3602   -0.4913    1.8083 H   0  0  0  0  0  0  0  0  0  0  0  0
   -1.5549   -0.9526    4.0887 H   0  0  0  0  0  0  0  0  0  0  0  0
   -2.5357   -2.0653    3.0968 H   0  0  0  0  0  0  0  0  0  0  0  0
   -2.0122   -2.5452    4.7195 H   0  0  0  0  0  0  0  0  0  0  0  0
    1.6027   -3.5690    2.3119 H   0  0  0  0  0  0  0  0  0  0  0  0
    2.7040   -2.6976    0.2518 H   0  0  0  0  0  0  0  0  0  0  0  0
    1.3466    0.4764   -1.8236 H   0  0  0  0  0  0  0  0  0  0  0  0
  1  2  1  0
  2  3  1  0
  3  4  2  0
  4  5  1  0
  5  6  2  0
  6  7  1  0
  7  8  1  0
  8  9  2  0
  9 10  1  0
 10 11  1  0
 11 12  1  0
 10 13  2  0
 13 14  1  0
 14 15  2  0
  7 16  2  0
 16  3  1  0
 15  8  1  0
  1 17  1  0
  1 18  1  0
  1 19  1  0
  4 20  1  0
  5 21  1  0
  9 22  1  0
 12 23  1  0
 12 24  1  0
 12 25  1  0
 13 26  1  0
 14 27  1  0
 16 28  1  0
M  END
$$$$

     RDKit          3D

 28 29  0  0  0  0  0  0  0  0999 V2000
    5.1392    0.7030   -0.7499 C   0  0  0  0  0  0  0  0  0  0  0  0
    3.9497   -0.0801   -0.9078 O   0  0  0  0  0  0  0  0  0  0  0  0
    2.7935    0.4185   -0.4232 C   0  0  0  0  0  0  0  0  0  0  0  0
    2.6783    1.6542    0.2093 C   0  0  0  0  0  0  0  0  0  0  0  0
    1.4207    2.0233    0.6649 C   0  0  0  0  0  0  0  0  0  0  0  0
    0.3324    1.2939    0.5333 N   0  0  0  0  0  0  0  0  0  0  0  0
    0.4505    0.0987   -0.0776 C   0  0  0  0  0  0  0  0  0  0  0  0
   -0.7771   -0.7214   -0.1998 C   0  0  0  0  0  0  0  0  0  0  0  0
   -1.9849   -0.2542    0.3030 C   0  0  0  0  0  0  0  0  0  0  0  0
   -3.1200   -1.0544    0.1725 C   0  0  0  0  0  0  0  0  0  0  0  0
   -4.3426   -0.7224    0.6077 O   0  0  0  0  0  0  0  0  0  0  0  0
   -4.5123    0.5382    1.2521 C   0  0  0  0  0  0  0  0  0  0  0  0
   -2.9863   -2.2927   -0.4573 C   0  0  0  0  0  0  0  0  0  0  0  0
   -1.7377   -2.6627   -0.9150 C   0  0  0  0  0  0  0  0  0  0  0  0
   -0.6470   -1.9079   -0.8039 N   0  0  0  0  0  0  0  0  0  0  0  0
    1.6537   -0.3654   -0.5700 C   0  0  0  0  0  0  0  0  0  0  0  0
    5.9512    0.1152   -1.1839 H   0  0  0  0  0  0  0  0  0  0  0  0
    5.3480    0.8858    0.2998 H   0  0  0  0  0  0  0  0  0  0  0  0
    5.0504    1.6438   -1.2809 H   0  0  0  0  0  0  0  0  0  0  0  0
    3.5259    2.3216    0.3575 H   0  0  0  0  0  0  0  0  0  0  0  0
    1.2846    2.9759    1.1702 H   0  0  0  0  0  0  0  0  0  0  0  0
   -2.0232    0.7131    0.7887 H   0  0  0  0  0  0  0  0  0  0  0  0
   -4.2581    1.3524    0.5778 H   0  0  0  0  0  0  0  0  0  0  0  0
   -3.9061    0.6015    2.1535 H   0  0  0  0  0  0  0  0  0  0  0  0
   -5.5594    0.6105    1.5235 H   0  0  0  0  0  0  0  0  0  0  0  0
   -3.8463   -2.9365   -0.5841 H   0  0  0  0  0  0  0  0  0  0  0  0
   -1.5990   -3.6267   -1.4012 H   0  0  0  0  0  0  0  0  0  0  0  0
    1.7219   -1.3250   -1.0591 H   0  0  0  0  0  0  0  0  0  0  0  0
  1  2  1  0
  2  3  1  0
  3  4  2  0
  4  5  1  0
  5  6  2  0
  6  7  1  0
  7  8  1  0
  8  9  2  0
  9 10  1  0
 10 11  1  0
 11 12  1  0
 10 13  2  0
 13 14  1  0
 14 15  2  0
  7 16  2  0
 16  3  1  0
 15  8  1  0
  1 17  1  0
  1 18  1  0
  1 19  1  0
  4 20  1  0
  5 21  1  0
  9 22  1  0
 12 23  1  0
 12 24  1  0
 12 25  1  0
 13 26  1  0
 14 27  1  0
 16 28  1  0
M  END
$$$$

     RDKit          3D

 28 29  0  0  0  0  0  0  0  0999 V2000
    1.8984    4.2949   -2.3216 C   0  0  0  0  0  0  0  0  0  0  0  0
    1.4042    3.6180   -1.1597 O   0  0  0  0  0  0  0  0  0  0  0  0
    1.0044    2.3371   -1.2963 C   0  0  0  0  0  0  0  0  0  0  0  0
    1.0244    1.6340   -2.4989 C   0  0  0  0  0  0  0  0  0  0  0  0
    0.5716    0.3221   -2.4795 C   0  0  0  0  0  0  0  0  0  0  0  0
    0.1381   -0.3047   -1.4063 N   0  0  0  0  0  0  0  0  0  0  0  0
    0.1200    0.3821   -0.2455 C   0  0  0  0  0  0  0  0  0  0  0  0
   -0.3783   -0.3308    0.9530 C   0  0  0  0  0  0  0  0  0  0  0  0
   -0.7029   -1.6798    0.8849 C   0  0  0  0  0  0  0  0  0  0  0  0
   -1.1667   -2.3169    2.0354 C   0  0  0  0  0  0  0  0  0  0  0  0
   -1.5027   -3.6121    2.1098 O   0  0  0  0  0  0  0  0  0  0  0  0
   -1.3882   -4.4061    0.9325 C   0  0  0  0  0  0  0  0  0  0  0  0
   -1.2885   -1.5657    3.2046 C   0  0  0  0  0  0  0  0  0  0  0  0
   -0.9442   -0.2294    3.1604 C   0  0  0  0  0  0  0  0  0  0  0  0
   -0.4933    0.3909    2.0728 N   0  0  0  0  0  0  0  0  0  0  0  0
    0.5418    1.6934   -0.1538 C   0  0  0  0  0  0  0  0  0  0  0  0
    2.7820    3.8003   -2.7084 H   0  0  0  0  0  0  0  0  0  0  0  0
    2.1581    5.3055   -1.9959 H   0  0  0  0  0  0  0  0  0  0  0  0
    1.1368    4.3515   -3.0910 H   0  0  0  0  0  0  0  0  0  0  0  0
    1.3695    2.0765   -3.4310 H   0  0  0  0  0  0  0  0  0  0  0  0
    0.5663   -0.2633   -3.3964 H   0  0  0  0  0  0  0  0  0  0  0  0
   -0.5906   -2.2101   -0.0520 H   0  0  0  0  0  0  0  0  0  0  0  0
   -0.3592   -4.4408    0.5864 H   0  0  0  0  0  0  0  0  0  0  0  0
   -2.0310   -4.0233    0.1410 H   0  0  0  0  0  0  0  0  0  0  0  0
   -1.7128   -5.4058    1.2011 H   0  0  0  0  0  0  0  0  0  0  0  0
   -1.6428   -2.0311    4.1159 H   0  0  0  0  0  0  0  0  0  0  0  0
   -1.0354    0.3883    4.0520 H   0  0  0  0  0  0  0  0  0  0  0  0
    0.5209    2.2253    0.7864 H   0  0  0  0  0  0  0  0  0  0  0  0
  1  2  1  0
  2  3  1  0
  3  4  2  0
  4  5  1  0
  5  6  2  0
  6  7  1  0
  7  8  1  0
  8  9  2  0
  9 10  1  0
 10 11  1  0
 11 12  1  0
 10 13  2  0
 13 14  1  0
 14 15  2  0
  7 16  2  0
 16  3  1  0
 15  8  1  0
  1 17  1  0
  1 18  1  0
  1 19  1  0
  4 20  1  0
  5 21  1  0
  9 22  1  0
 12 23  1  0
 12 24  1  0
 12 25  1  0
 13 26  1  0
 14 27  1  0
 16 28  1  0
M  END
$$$$

     RDKit          3D

 28 29  0  0  0  0  0  0  0  0999 V2000
   -3.1168    1.0565   -3.3787 C   0  0  0  0  0  0  0  0  0  0  0  0
   -2.4271    2.2360   -2.9739 O   0  0  0  0  0  0  0  0  0  0  0  0
   -1.4811    2.1302   -2.0316 C   0  0  0  0  0  0  0  0  0  0  0  0
   -0.8407    3.3084   -1.6467 C   0  0  0  0  0  0  0  0  0  0  0  0
    0.1273    3.2382   -0.6645 C   0  0  0  0  0  0  0  0  0  0  0  0
    0.4911    2.1141   -0.0570 N   0  0  0  0  0  0  0  0  0  0  0  0
   -0.1211    0.9849   -0.4270 C   0  0  0  0  0  0  0  0  0  0  0  0
    0.2916   -0.2535    0.2705 C   0  0  0  0  0  0  0  0  0  0  0  0
    1.1939   -0.2051    1.3142 C   0  0  0  0  0  0  0  0  0  0  0  0
    1.5480   -1.3853    1.9591 C   0  0  0  0  0  0  0  0  0  0  0  0
    2.4217   -1.2887    2.9809 O   0  0  0  0  0  0  0  0  0  0  0  0
    2.8193   -2.4873    3.6525 C   0  0  0  0  0  0  0  0  0  0  0  0
    0.9865   -2.5828    1.5211 C   0  0  0  0  0  0  0  0  0  0  0  0
    0.0971   -2.5184    0.4585 C   0  0  0  0  0  0  0  0  0  0  0  0
   -0.2570   -1.4093   -0.1559 N   0  0  0  0  0  0  0  0  0  0  0  0
   -1.1042    0.9408   -1.4076 C   0  0  0  0  0  0  0  0  0  0  0  0
   -2.4295    0.3334   -3.8070 H   0  0  0  0  0  0  0  0  0  0  0  0
   -3.8320    1.3571   -4.1372 H   0  0  0  0  0  0  0  0  0  0  0  0
   -3.6468    0.6132   -2.5387 H   0  0  0  0  0  0  0  0  0  0  0  0
   -1.1083    4.2495   -2.1091 H   0  0  0  0  0  0  0  0  0  0  0  0
    0.6442    4.1402   -0.3441 H   0  0  0  0  0  0  0  0  0  0  0  0
    1.6327    0.7311    1.6306 H   0  0  0  0  0  0  0  0  0  0  0  0
    1.9685   -2.9767    4.1107 H   0  0  0  0  0  0  0  0  0  0  0  0
    3.3145   -3.1673    2.9652 H   0  0  0  0  0  0  0  0  0  0  0  0
    3.5211   -2.1789    4.4307 H   0  0  0  0  0  0  0  0  0  0  0  0
    1.2259   -3.5442    1.9742 H   0  0  0  0  0  0  0  0  0  0  0  0
   -0.3630   -3.4268    0.0785 H   0  0  0  0  0  0  0  0  0  0  0  0
   -1.5559   -0.0093   -1.6674 H   0  0  0  0  0  0  0  0  0  0  0  0
  1  2  1  0
  2  3  1  0
  3  4  2  0
  4  5  1  0
  5  6  2  0
  6  7  1  0
  7  8  1  0
  8  9  2  0
  9 10  1  0
 10 11  1  0
 11 12  1  0
 10 13  2  0
 13 14  1  0
 14 15  2  0
  7 16  2  0
 16  3  1  0
 15  8  1  0
  1 17  1  0
  1 18  1  0
  1 19  1  0
  4 20  1  0
  5 21  1  0
  9 22  1  0
 12 23  1  0
 12 24  1  0
 12 25  1  0
 13 26  1  0
 14 27  1  0
 16 28  1  0
M  END
$$$$
