
     RDKit          3D

 24 25  0  0  0  0  0  0  0  0999 V2000
   -2.2291   -3.7596   -0.3202 C   0  0  0  0  0  0  0  0  0  0  0  0
   -1.4976   -2.4659   -0.1989 C   0  0  0  0  0  0  0  0  0  0  0  0
   -2.0439   -1.3400    0.4266 C   0  0  0  0  0  0  0  0  0  0  0  0
   -1.3199   -0.1739    0.5142 C   0  0  0  0  0  0  0  0  0  0  0  0
   -0.0356   -0.1255   -0.0372 C   0  0  0  0  0  0  0  0  0  0  0  0
    0.7895    1.1122    0.0344 C   0  0  0  0  0  0  0  0  0  0  0  0
    2.1281    1.0599    0.4299 C   0  0  0  0  0  0  0  0  0  0  0  0
    2.9029    2.2150    0.5328 C   0  0  0  0  0  0  0  0  0  0  0  0
    2.3141    3.4255    0.2149 C   0  0  0  0  0  0  0  0  0  0  0  0
    3.0526    4.5509    0.3118 F   0  0  0  0  0  0  0  0  0  0  0  0
    1.0045    3.5391   -0.1996 C   0  0  0  0  0  0  0  0  0  0  0  0
    0.2821    2.3749   -0.2791 C   0  0  0  0  0  0  0  0  0  0  0  0
   -1.0112    2.4648   -0.7182 F   0  0  0  0  0  0  0  0  0  0  0  0
    0.5060   -1.1926   -0.6309 N   0  0  0  0  0  0  0  0  0  0  0  0
   -0.1961   -2.3126   -0.7084 C   0  0  0  0  0  0  0  0  0  0  0  0
   -2.2188   -4.1175   -1.3486 H   0  0  0  0  0  0  0  0  0  0  0  0
   -3.2656   -3.6592    0.0070 H   0  0  0  0  0  0  0  0  0  0  0  0
   -1.7584   -4.5295    0.2895 H   0  0  0  0  0  0  0  0  0  0  0  0
   -3.0384   -1.3911    0.8431 H   0  0  0  0  0  0  0  0  0  0  0  0
   -1.7186    0.7103    0.9963 H   0  0  0  0  0  0  0  0  0  0  0  0
    2.5723    0.1000    0.6534 H   0  0  0  0  0  0  0  0  0  0  0  0
    3.9356    2.1720    0.8538 H   0  0  0  0  0  0  0  0  0  0  0  0
    0.5609    4.4916   -0.4569 H   0  0  0  0  0  0  0  0  0  0  0  0
    0.2845   -3.1488   -1.2096 H   0  0  0  0  0  0  0  0  0  0  0  0
  1  2  1  0
  2  3  2  0
  3  4  1  0
  4  5  2  0
  5  6  1  0
  6  7  1  0
  7  8  2  0
  8  9  1  0
  9 10  1  0
  9 11  2  0
 11 12  1  0
 12 13  1  0
  5 14  1  0
 14 15  2  0
 15  2  1  0
 12  6  2  0
  1 16  1  0
  1 17  1  0
  1 18  1  0
  3 19  1  0
  4 20  1  0
  7 21  1  0
  8 22  1  0
 11 23  1  0
 15 24  1  0
M  END
$$$$

     RDKit          3D

 24 25  0  0  0  0  0  0  0  0999 V2000
   -1.4566    1.6644    3.7850 C   0  0  0  0  0  0  0  0  0  0  0  0
   -0.9292    1.1250    2.4992 C   0  0  0  0  0  0  0  0  0  0  0  0
    0.3362    1.4473    2.0015 C   0  0  0  0  0  0  0  0  0  0  0  0
    0.7729    0.9151    0.8090 C   0  0  0  0  0  0  0  0  0  0  0  0
   -0.0616    0.0383    0.1077 C   0  0  0  0  0  0  0  0  0  0  0  0
    0.3553   -0.5788   -1.1843 C   0  0  0  0  0  0  0  0  0  0  0  0
   -0.5661   -0.7366   -2.2243 C   0  0  0  0  0  0  0  0  0  0  0  0
   -0.1959   -1.2843   -3.4530 C   0  0  0  0  0  0  0  0  0  0  0  0
    1.1162   -1.6897   -3.6166 C   0  0  0  0  0  0  0  0  0  0  0  0
    1.4899   -2.2213   -4.7979 F   0  0  0  0  0  0  0  0  0  0  0  0
    2.0658   -1.5799   -2.6228 C   0  0  0  0  0  0  0  0  0  0  0  0
    1.6528   -1.0321   -1.4338 C   0  0  0  0  0  0  0  0  0  0  0  0
    2.5781   -0.9570   -0.4282 F   0  0  0  0  0  0  0  0  0  0  0  0
   -1.2815   -0.2685    0.5642 N   0  0  0  0  0  0  0  0  0  0  0  0
   -1.6928    0.2477    1.7113 C   0  0  0  0  0  0  0  0  0  0  0  0
   -0.7526    2.3627    4.2388 H   0  0  0  0  0  0  0  0  0  0  0  0
   -2.4024    2.1866    3.6261 H   0  0  0  0  0  0  0  0  0  0  0  0
   -1.6495    0.8586    4.4908 H   0  0  0  0  0  0  0  0  0  0  0  0
    0.9700    2.1218    2.5549 H   0  0  0  0  0  0  0  0  0  0  0  0
    1.7481    1.1573    0.4081 H   0  0  0  0  0  0  0  0  0  0  0  0
   -1.5894   -0.4366   -2.0638 H   0  0  0  0  0  0  0  0  0  0  0  0
   -0.9110   -1.3882   -4.2593 H   0  0  0  0  0  0  0  0  0  0  0  0
    3.0873   -1.9095   -2.7587 H   0  0  0  0  0  0  0  0  0  0  0  0
   -2.6842   -0.0423    2.0461 H   0  0  0  0  0  0  0  0  0  0  0  0
  1  2  1  0
  2  3  2  0
  3  4  1  0
  4  5  2  0
  5  6  1  0
  6  7  1  0
  7  8  2  0
  8  9  1  0
  9 10  1  0
  9 11  2  0
 11 12  1  0
 12 13  1  0
  5 14  1  0
 14 15  2  0
 15  2  1  0
 12  6  2  0
  1 16  1  0
  1 17  1  0
  1 18  1  0
  3 19  1  0
  4 20  1  0
  7 21  1  0
  8 22  1  0
 11 23  1  0
 15 24  1  0
M  END
$$$$

     RDKit          3D

 24 25  0  0  0  0  0  0  0  0999 V2000
    3.2096    0.1132   -2.9832 C   0  0  0  0  0  0  0  0  0  0  0  0
    2.1220    0.0406   -1.9650 C   0  0  0  0  0  0  0  0  0  0  0  0
    2.0948   -0.9364   -0.9630 C   0  0  0  0  0  0  0  0  0  0  0  0
    1.0769   -0.9574   -0.0376 C   0  0  0  0  0  0  0  0  0  0  0  0
    0.0705    0.0109   -0.1084 C   0  0  0  0  0  0  0  0  0  0  0  0
   -1.0476    0.0510    0.8738 C   0  0  0  0  0  0  0  0  0  0  0  0
   -1.4431    1.2634    1.4440 C   0  0  0  0  0  0  0  0  0  0  0  0
   -2.4793    1.3289    2.3744 C   0  0  0  0  0  0  0  0  0  0  0  0
   -3.1193    0.1523    2.7198 C   0  0  0  0  0  0  0  0  0  0  0  0
   -4.1228    0.2014    3.6200 F   0  0  0  0  0  0  0  0  0  0  0  0
   -2.7831   -1.0724    2.1840 C   0  0  0  0  0  0  0  0  0  0  0  0
   -1.7562   -1.0847    1.2740 C   0  0  0  0  0  0  0  0  0  0  0  0
   -1.4332   -2.2887    0.7094 F   0  0  0  0  0  0  0  0  0  0  0  0
    0.0903    0.9619   -1.0470 N   0  0  0  0  0  0  0  0  0  0  0  0
    1.0707    0.9717   -1.9377 C   0  0  0  0  0  0  0  0  0  0  0  0
    3.9950    0.7900   -2.6561 H   0  0  0  0  0  0  0  0  0  0  0  0
    2.8346    0.4802   -3.9403 H   0  0  0  0  0  0  0  0  0  0  0  0
    3.6688   -0.8641   -3.1381 H   0  0  0  0  0  0  0  0  0  0  0  0
    2.8826   -1.6733   -0.9171 H   0  0  0  0  0  0  0  0  0  0  0  0
    1.0374   -1.7055    0.7464 H   0  0  0  0  0  0  0  0  0  0  0  0
   -0.9321    2.1694    1.1521 H   0  0  0  0  0  0  0  0  0  0  0  0
   -2.7741    2.2699    2.8203 H   0  0  0  0  0  0  0  0  0  0  0  0
   -3.2978   -1.9835    2.4577 H   0  0  0  0  0  0  0  0  0  0  0  0
    1.0355    1.7610   -2.6823 H   0  0  0  0  0  0  0  0  0  0  0  0
  1  2  1  0
  2  3  2  0
  3  4  1  0
  4  5  2  0
  5  6  1  0
  6  7  1  0
  7  8  2  0
  8  9  1  0
  9 10  1  0
  9 11  2  0
 11 12  1  0
 12 13  1  0
  5 14  1  0
 14 15  2  0
 15  2  1  0
 12  6  2  0
  1 16  1  0
  1 17  1  0
  1 18  1  0
  3 19  1  0
  4 20  1  0
  7 21  1  0
  8 22  1  0
 11 23  1  0
 15 24  1  0
M  END
$$$$

     RDKit          3D

 24 25  0  0  0  0  0  0  0  0999 V2000
    2.4605    0.3128    3.6145 C   0  0  0  0  0  0  0  0  0  0  0  0
    1.6014    0.2370    2.3980 C   0  0  0  0  0  0  0  0  0  0  0  0
    0.4825    1.0553    2.2071 C   0  0  0  0  0  0  0  0  0  0  0  0
   -0.2724    0.9493    1.0596 C   0  0  0  0  0  0  0  0  0  0  0  0
    0.0938    0.0093    0.0900 C   0  0  0  0  0  0  0  0  0  0  0  0
   -0.6901   -0.1738   -1.1636 C   0  0  0  0  0  0  0  0  0  0  0  0
   -0.9564   -1.4554   -1.6529 C   0  0  0  0  0  0  0  0  0  0  0  0
   -1.7012   -1.6548   -2.8160 C   0  0  0  0  0  0  0  0  0  0  0  0
   -2.1770   -0.5419   -3.4837 C   0  0  0  0  0  0  0  0  0  0  0  0
   -2.9002   -0.7171   -4.6089 F   0  0  0  0  0  0  0  0  0  0  0  0
   -1.9390    0.7468   -3.0569 C   0  0  0  0  0  0  0  0  0  0  0  0
   -1.1966    0.8903   -1.9115 C   0  0  0  0  0  0  0  0  0  0  0  0
   -0.9169    2.1655   -1.5072 F   0  0  0  0  0  0  0  0  0  0  0  0
    1.1545   -0.7880    0.2637 N   0  0  0  0  0  0  0  0  0  0  0  0
    1.8780   -0.6735    1.3635 C   0  0  0  0  0  0  0  0  0  0  0  0
    2.5405   -0.6628    4.0976 H   0  0  0  0  0  0  0  0  0  0  0  0
    3.4702    0.6242    3.3578 H   0  0  0  0  0  0  0  0  0  0  0  0
    2.0554    1.0213    4.3383 H   0  0  0  0  0  0  0  0  0  0  0  0
    0.2103    1.7666    2.9713 H   0  0  0  0  0  0  0  0  0  0  0  0
   -1.1406    1.5774    0.8897 H   0  0  0  0  0  0  0  0  0  0  0  0
   -0.5700   -2.3108   -1.1202 H   0  0  0  0  0  0  0  0  0  0  0  0
   -1.9074   -2.6511   -3.1851 H   0  0  0  0  0  0  0  0  0  0  0  0
   -2.3138    1.6085   -3.5934 H   0  0  0  0  0  0  0  0  0  0  0  0
    2.7344   -1.3350    1.4483 H   0  0  0  0  0  0  0  0  0  0  0  0
  1  2  1  0
  2  3  2  0
  3  4  1  0
  4  5  2  0
  5  6  1  0
  6  7  1  0
  7  8  2  0
  8  9  1  0
  9 10  1  0
  9 11  2  0
 11 12  1  0
 12 13  1  0
  5 14  1  0
 14 15  2  0
 15  2  1  0
 12  6  2  0
  1 16  1  0
  1 17  1  0
  1 18  1  0
  3 19  1  0
  4 20  1  0
  7 21  1  0
  8 22  1  0
 11 23  1  0
 15 24  1  0
M  END
$$$$

     RDKit          3D

 24 25  0  0  0  0  0  0  0  0999 V2000
    3.0642   -3.0160   -0.8568 C   0  0  0  0  0  0  0  0  0  0  0  0
    2.0106   -1.9923   -0.6004 C   0  0  0  0  0  0  0  0  0  0  0  0
    0.9001   -1.8265   -1.4360 C   0  0  0  0  0  0  0  0  0  0  0  0
   -0.0516   -0.8750   -1.1483 C   0  0  0  0  0  0  0  0  0  0  0  0
    0.1045   -0.0761   -0.0105 C   0  0  0  0  0  0  0  0  0  0  0  0
   -0.8915    0.9681    0.3588 C   0  0  0  0  0  0  0  0  0  0  0  0
   -1.2730    1.1484    1.6912 C   0  0  0  0  0  0  0  0  0  0  0  0
   -2.2174    2.1064    2.0575 C   0  0  0  0  0  0  0  0  0  0  0  0
   -2.7685    2.8947    1.0625 C   0  0  0  0  0  0  0  0  0  0  0  0
   -3.6832    3.8245    1.4033 F   0  0  0  0  0  0  0  0  0  0  0  0
   -2.4211    2.7789   -0.2658 C   0  0  0  0  0  0  0  0  0  0  0  0
   -1.4897    1.8190   -0.5743 C   0  0  0  0  0  0  0  0  0  0  0  0
   -1.1008    1.7244   -1.8824 F   0  0  0  0  0  0  0  0  0  0  0  0
    1.1517   -0.2332    0.8064 N   0  0  0  0  0  0  0  0  0  0  0  0
    2.0660   -1.1451    0.5190 C   0  0  0  0  0  0  0  0  0  0  0  0
    4.0550   -2.6330   -0.6081 H   0  0  0  0  0  0  0  0  0  0  0  0
    2.8923   -3.9001   -0.2451 H   0  0  0  0  0  0  0  0  0  0  0  0
    3.0609   -3.3349   -1.8995 H   0  0  0  0  0  0  0  0  0  0  0  0
    0.7914   -2.4528   -2.3086 H   0  0  0  0  0  0  0  0  0  0  0  0
   -0.9162   -0.7299   -1.7824 H   0  0  0  0  0  0  0  0  0  0  0  0
   -0.8162    0.5326    2.4522 H   0  0  0  0  0  0  0  0  0  0  0  0
   -2.5162    2.2325    3.0905 H   0  0  0  0  0  0  0  0  0  0  0  0
   -2.8507    3.4081   -1.0341 H   0  0  0  0  0  0  0  0  0  0  0  0
    2.8995   -1.2228    1.2108 H   0  0  0  0  0  0  0  0  0  0  0  0
  1  2  1  0
  2  3  2  0
  3  4  1  0
  4  5  2  0
  5  6  1  0
  6  7  1  0
  7  8  2  0
  8  9  1  0
  9 10  1  0
  9 11  2  0
 11 12  1  0
 12 13  1  0
  5 14  1  0
 14 15  2  0
 15  2  1  0
 12  6  2  0
  1 16  1  0
  1 17  1  0
  1 18  1  0
  3 19  1  0
  4 20  1  0
  7 21  1  0
  8 22  1  0
 11 23  1  0
 15 24  1  0
M  END
$$$$

     RDKit          3D

 24 25  0  0  0  0  0  0  0  0999 V2000
    2.9995   -2.5913   -1.8789 C   0  0  0  0  0  0  0  0  0  0  0  0
    2.0019   -1.6989   -1.2196 C   0  0  0  0  0  0  0  0  0  0  0  0
    2.3804   -0.6960   -0.3173 C   0  0  0  0  0  0  0  0  0  0  0  0
    1.4305    0.1124    0.2644 C   0  0  0  0  0  0  0  0  0  0  0  0
    0.0810   -0.0781   -0.0569 C   0  0  0  0  0  0  0  0  0  0  0  0
   -1.0023    0.7592    0.5303 C   0  0  0  0  0  0  0  0  0  0  0  0
   -2.0986    1.1408   -0.2476 C   0  0  0  0  0  0  0  0  0  0  0  0
   -3.1301    1.9223    0.2730 C   0  0  0  0  0  0  0  0  0  0  0  0
   -3.0530    2.3054    1.5981 C   0  0  0  0  0  0  0  0  0  0  0  0
   -4.0482    3.0516    2.1195 F   0  0  0  0  0  0  0  0  0  0  0  0
   -2.0052    1.9561    2.4201 C   0  0  0  0  0  0  0  0  0  0  0  0
   -1.0113    1.1934    1.8585 C   0  0  0  0  0  0  0  0  0  0  0  0
    0.0225    0.8203    2.6725 F   0  0  0  0  0  0  0  0  0  0  0  0
   -0.2926   -1.0197   -0.9320 N   0  0  0  0  0  0  0  0  0  0  0  0
    0.6252   -1.7956   -1.4832 C   0  0  0  0  0  0  0  0  0  0  0  0
    3.4236   -2.1083   -2.7552 H   0  0  0  0  0  0  0  0  0  0  0  0
    2.5456   -3.5325   -2.1972 H   0  0  0  0  0  0  0  0  0  0  0  0
    3.8267   -2.8154   -1.2062 H   0  0  0  0  0  0  0  0  0  0  0  0
    3.4254   -0.5583   -0.0789 H   0  0  0  0  0  0  0  0  0  0  0  0
    1.7048    0.8902    0.9660 H   0  0  0  0  0  0  0  0  0  0  0  0
   -2.1471    0.8163   -1.2748 H   0  0  0  0  0  0  0  0  0  0  0  0
   -3.9715    2.2179   -0.3395 H   0  0  0  0  0  0  0  0  0  0  0  0
   -1.9675    2.2570    3.4591 H   0  0  0  0  0  0  0  0  0  0  0  0
    0.2601   -2.5484   -2.1739 H   0  0  0  0  0  0  0  0  0  0  0  0
  1  2  1  0
  2  3  2  0
  3  4  1  0
  4  5  2  0
  5  6  1  0
  6  7  1  0
  7  8  2  0
  8  9  1  0
  9 10  1  0
  9 11  2  0
 11 12  1  0
 12 13  1  0
  5 14  1  0
 14 15  2  0
 15  2  1  0
 12  6  2  0
  1 16  1  0
  1 17  1  0
  1 18  1  0
  3 19  1  0
  4 20  1  0
  7 21  1  0
  8 22  1  0
 11 23  1  0
 15 24  1  0
M  END
$$$$

     RDKit          3D

 24 25  0  0  0  0  0  0  0  0999 V2000
    0.4211    4.3324   -0.5344 C   0  0  0  0  0  0  0  0  0  0  0  0
    0.2716    2.8555   -0.3857 C   0  0  0  0  0  0  0  0  0  0  0  0
    0.2651    1.9862   -1.4811 C   0  0  0  0  0  0  0  0  0  0  0  0
    0.1405    0.6281   -1.2921 C   0  0  0  0  0  0  0  0  0  0  0  0
    0.0341    0.1272    0.0107 C   0  0  0  0  0  0  0  0  0  0  0  0
   -0.1193   -1.3302    0.2814 C   0  0  0  0  0  0  0  0  0  0  0  0
   -0.9817   -1.7737    1.2879 C   0  0  0  0  0  0  0  0  0  0  0  0
   -1.1639   -3.1316    1.5511 C   0  0  0  0  0  0  0  0  0  0  0  0
   -0.4648   -4.0438    0.7845 C   0  0  0  0  0  0  0  0  0  0  0  0
   -0.6387   -5.3603    1.0213 F   0  0  0  0  0  0  0  0  0  0  0  0
    0.4093   -3.6707   -0.2135 C   0  0  0  0  0  0  0  0  0  0  0  0
    0.5594   -2.3231   -0.4293 C   0  0  0  0  0  0  0  0  0  0  0  0
    1.4569   -1.9423   -1.3894 F   0  0  0  0  0  0  0  0  0  0  0  0
    0.0371    0.9461    1.0680 N   0  0  0  0  0  0  0  0  0  0  0  0
    0.1510    2.2508    0.8770 C   0  0  0  0  0  0  0  0  0  0  0  0
   -0.1355    4.8669    0.2382 H   0  0  0  0  0  0  0  0  0  0  0  0
    0.0663    4.6636   -1.5104 H   0  0  0  0  0  0  0  0  0  0  0  0
    1.4656    4.6210   -0.4497 H   0  0  0  0  0  0  0  0  0  0  0  0
    0.3531    2.3894   -2.4800 H   0  0  0  0  0  0  0  0  0  0  0  0
    0.1220   -0.0592   -2.1274 H   0  0  0  0  0  0  0  0  0  0  0  0
   -1.5138   -1.0441    1.8782 H   0  0  0  0  0  0  0  0  0  0  0  0
   -1.8377   -3.4640    2.3295 H   0  0  0  0  0  0  0  0  0  0  0  0
    0.9551   -4.3955   -0.8016 H   0  0  0  0  0  0  0  0  0  0  0  0
    0.1474    2.8714    1.7670 H   0  0  0  0  0  0  0  0  0  0  0  0
  1  2  1  0
  2  3  2  0
  3  4  1  0
  4  5  2  0
  5  6  1  0
  6  7  1  0
  7  8  2  0
  8  9  1  0
  9 10  1  0
  9 11  2  0
 11 12  1  0
 12 13  1  0
  5 14  1  0
 14 15  2  0
 15  2  1  0
 12  6  2  0
  1 16  1  0
  1 17  1  0
  1 18  1  0
  3 19  1  0
  4 20  1  0
  7 21  1  0
  8 22  1  0
 11 23  1  0
 15 24  1  0
M  END
$$$$

     RDKit          3D

 24 25  0  0  0  0  0  0  0  0999 V2000
   -2.8614    1.0601   -3.1483 C   0  0  0  0  0  0  0  0  0  0  0  0
   -1.8818    0.6774   -2.0904 C   0  0  0  0  0  0  0  0  0  0  0  0
   -0.9809   -0.3820   -2.2505 C   0  0  0  0  0  0  0  0  0  0  0  0
   -0.0869   -0.6930   -1.2523 C   0  0  0  0  0  0  0  0  0  0  0  0
   -0.0950    0.0580   -0.0717 C   0  0  0  0  0  0  0  0  0  0  0  0
    0.8433   -0.2392    1.0464 C   0  0  0  0  0  0  0  0  0  0  0  0
    1.4990    0.7929    1.7213 C   0  0  0  0  0  0  0  0  0  0  0  0
    2.3983    0.5329    2.7557 C   0  0  0  0  0  0  0  0  0  0  0  0
    2.6203   -0.7846    3.1103 C   0  0  0  0  0  0  0  0  0  0  0  0
    3.4922   -1.0528    4.1057 F   0  0  0  0  0  0  0  0  0  0  0  0
    1.9912   -1.8449    2.4951 C   0  0  0  0  0  0  0  0  0  0  0  0
    1.1180   -1.5375    1.4826 C   0  0  0  0  0  0  0  0  0  0  0  0
    0.4505   -2.5758    0.8915 F   0  0  0  0  0  0  0  0  0  0  0  0
   -0.9320    1.0860    0.0889 N   0  0  0  0  0  0  0  0  0  0  0  0
   -1.7909    1.3791   -0.8783 C   0  0  0  0  0  0  0  0  0  0  0  0
   -3.7635    1.4972   -2.7154 H   0  0  0  0  0  0  0  0  0  0  0  0
   -3.1458    0.1961   -3.7495 H   0  0  0  0  0  0  0  0  0  0  0  0
   -2.4268    1.7925   -3.8248 H   0  0  0  0  0  0  0  0  0  0  0  0
   -0.9913   -0.9544   -3.1666 H   0  0  0  0  0  0  0  0  0  0  0  0
    0.6206   -1.5056   -1.3530 H   0  0  0  0  0  0  0  0  0  0  0  0
    1.2986    1.8151    1.4358 H   0  0  0  0  0  0  0  0  0  0  0  0
    2.9115    1.3362    3.2681 H   0  0  0  0  0  0  0  0  0  0  0  0
    2.1701   -2.8693    2.7911 H   0  0  0  0  0  0  0  0  0  0  0  0
   -2.4574    2.2155   -0.6915 H   0  0  0  0  0  0  0  0  0  0  0  0
  1  2  1  0
  2  3  2  0
  3  4  1  0
  4  5  2  0
  5  6  1  0
  6  7  1  0
  7  8  2  0
  8  9  1  0
  9 10  1  0
  9 11  2  0
 11 12  1  0
 12 13  1  0
  5 14  1  0
 14 15  2  0
 15  2  1  0
 12  6  2  0
  1 16  1  0
  1 17  1  0
  1 18  1  0
  3 19  1  0
  4 20  1  0
  7 21  1  0
  8 22  1  0
 11 23  1  0
 15 24  1  0
M  END
$$$$

     RDKit          3D

 24 25  0  0  0  0  0  0  0  0999 V2000
   -4.3352   -0.6276    0.1712 C   0  0  0  0  0  0  0  0  0  0  0  0
   -2.8653   -0.3861    0.0916 C   0  0  0  0  0  0  0  0  0  0  0  0
   -2.1881   -0.3338   -1.1338 C   0  0  0  0  0  0  0  0  0  0  0  0
   -0.8277   -0.1362   -1.1690 C   0  0  0  0  0  0  0  0  0  0  0  0
   -0.1287    0.0164    0.0344 C   0  0  0  0  0  0  0  0  0  0  0  0
    1.3484    0.2060    0.0618 C   0  0  0  0  0  0  0  0  0  0  0  0
    2.1363   -0.4986    0.9760 C   0  0  0  0  0  0  0  0  0  0  0  0
    3.5222   -0.3469    1.0148 C   0  0  0  0  0  0  0  0  0  0  0  0
    4.1058    0.5353    0.1236 C   0  0  0  0  0  0  0  0  0  0  0  0
    5.4447    0.6950    0.1521 F   0  0  0  0  0  0  0  0  0  0  0  0
    3.3817    1.2654   -0.7943 C   0  0  0  0  0  0  0  0  0  0  0  0
    2.0226    1.0735   -0.7992 C   0  0  0  0  0  0  0  0  0  0  0  0
    1.2861    1.7949   -1.7000 F   0  0  0  0  0  0  0  0  0  0  0  0
   -0.7569   -0.0302    1.2111 N   0  0  0  0  0  0  0  0  0  0  0  0
   -2.0694   -0.2208    1.2365 C   0  0  0  0  0  0  0  0  0  0  0  0
   -4.7329   -0.3666    1.1545 H   0  0  0  0  0  0  0  0  0  0  0  0
   -4.8635   -0.0486   -0.5849 H   0  0  0  0  0  0  0  0  0  0  0  0
   -4.5616   -1.6756   -0.0175 H   0  0  0  0  0  0  0  0  0  0  0  0
   -2.7439   -0.4587   -2.0521 H   0  0  0  0  0  0  0  0  0  0  0  0
   -0.2841   -0.1009   -2.1046 H   0  0  0  0  0  0  0  0  0  0  0  0
    1.6550   -1.1704    1.6712 H   0  0  0  0  0  0  0  0  0  0  0  0
    4.1297   -0.9048    1.7161 H   0  0  0  0  0  0  0  0  0  0  0  0
    3.8513    1.9605   -1.4774 H   0  0  0  0  0  0  0  0  0  0  0  0
   -2.5264   -0.2412    2.2180 H   0  0  0  0  0  0  0  0  0  0  0  0
  1  2  1  0
  2  3  2  0
  3  4  1  0
  4  5  2  0
  5  6  1  0
  6  7  1  0
  7  8  2  0
  8  9  1  0
  9 10  1  0
  9 11  2  0
 11 12  1  0
 12 13  1  0
  5 14  1  0
 14 15  2  0
 15  2  1  0
 12  6  2  0
  1 16  1  0
  1 17  1  0
  1 18  1  0
  3 19  1  0
  4 20  1  0
  7 21  1  0
  8 22  1  0
 11 23  1  0
 15 24  1  0
M  END
$$$$

     RDKit          3D

 24 25  0  0  0  0  0  0  0  0999 V2000
   -2.0341   -2.4062    3.0485 C   0  0  0  0  0  0  0  0  0  0  0  0
   -1.3273   -1.6102    2.0060 C   0  0  0  0  0  0  0  0  0  0  0  0
   -0.7888   -2.2057    0.8583 C   0  0  0  0  0  0  0  0  0  0  0  0
   -0.1517   -1.4386   -0.0885 C   0  0  0  0  0  0  0  0  0  0  0  0
   -0.0612   -0.0538    0.1002 C   0  0  0  0  0  0  0  0  0  0  0  0
    0.6108    0.8364   -0.8893 C   0  0  0  0  0  0  0  0  0  0  0  0
    1.4056    1.9013   -0.4549 C   0  0  0  0  0  0  0  0  0  0  0  0
    2.0522    2.7477   -1.3558 C   0  0  0  0  0  0  0  0  0  0  0  0
    1.8848    2.5112   -2.7085 C   0  0  0  0  0  0  0  0  0  0  0  0
    2.5036    3.3203   -3.5934 F   0  0  0  0  0  0  0  0  0  0  0  0
    1.1061    1.4857   -3.1997 C   0  0  0  0  0  0  0  0  0  0  0  0
    0.4888    0.6824   -2.2730 C   0  0  0  0  0  0  0  0  0  0  0  0
   -0.3144   -0.3166   -2.7519 F   0  0  0  0  0  0  0  0  0  0  0  0
   -0.5590    0.5276    1.1951 N   0  0  0  0  0  0  0  0  0  0  0  0
   -1.1685   -0.2193    2.1047 C   0  0  0  0  0  0  0  0  0  0  0  0
   -2.9043   -2.9026    2.6276 H   0  0  0  0  0  0  0  0  0  0  0  0
   -1.3884   -3.1890    3.4408 H   0  0  0  0  0  0  0  0  0  0  0  0
   -2.3600   -1.7773    3.8822 H   0  0  0  0  0  0  0  0  0  0  0  0
   -0.8768   -3.2742    0.7253 H   0  0  0  0  0  0  0  0  0  0  0  0
    0.2811   -1.8817   -0.9762 H   0  0  0  0  0  0  0  0  0  0  0  0
    1.5138    2.0725    0.6054 H   0  0  0  0  0  0  0  0  0  0  0  0
    2.6700    3.5666   -1.0110 H   0  0  0  0  0  0  0  0  0  0  0  0
    0.9728    1.3188   -4.2612 H   0  0  0  0  0  0  0  0  0  0  0  0
   -1.5553    0.3048    2.9694 H   0  0  0  0  0  0  0  0  0  0  0  0
  1  2  1  0
  2  3  2  0
  3  4  1  0
  4  5  2  0
  5  6  1  0
  6  7  1  0
  7  8  2  0
  8  9  1  0
  9 10  1  0
  9 11  2  0
 11 12  1  0
 12 13  1  0
  5 14  1  0
 14 15  2  0
 15  2  1  0
 12  6  2  0
  1 16  1  0
  1 17  1  0
  1 18  1  0
  3 19  1  0
  4 20  1  0
  7 21  1  0
  8 22  1  0
 11 23  1  0
 15 24  1  0
M  END
$$$$

     RDKit          3D

 24 25  0  0  0  0  0  0  0  0999 V2000
   -0.4339    3.0506   -3.1178 C   0  0  0  0  0  0  0  0  0  0  0  0
   -0.3085    2.0340   -2.0349 C   0  0  0  0  0  0  0  0  0  0  0  0
   -0.9214    2.1760   -0.7875 C   0  0  0  0  0  0  0  0  0  0  0  0
   -0.7757    1.2033    0.1752 C   0  0  0  0  0  0  0  0  0  0  0  0
   -0.0164    0.0637   -0.1154 C   0  0  0  0  0  0  0  0  0  0  0  0
    0.1896   -1.0201    0.8863 C   0  0  0  0  0  0  0  0  0  0  0  0
    1.4310   -1.6528    1.0040 C   0  0  0  0  0  0  0  0  0  0  0  0
    1.6599   -2.6447    1.9581 C   0  0  0  0  0  0  0  0  0  0  0  0
    0.6152   -3.0015    2.7917 C   0  0  0  0  0  0  0  0  0  0  0  0
    0.8205   -3.9544    3.7250 F   0  0  0  0  0  0  0  0  0  0  0  0
   -0.6368   -2.4296    2.7112 C   0  0  0  0  0  0  0  0  0  0  0  0
   -0.8121   -1.4610    1.7545 C   0  0  0  0  0  0  0  0  0  0  0  0
   -2.0629   -0.9181    1.6369 F   0  0  0  0  0  0  0  0  0  0  0  0
    0.5826   -0.0826   -1.3025 N   0  0  0  0  0  0  0  0  0  0  0  0
    0.4395    0.8586   -2.2200 C   0  0  0  0  0  0  0  0  0  0  0  0
   -0.9815    2.6452   -3.9645 H   0  0  0  0  0  0  0  0  0  0  0  0
    0.5489    3.3526   -3.4844 H   0  0  0  0  0  0  0  0  0  0  0  0
   -0.9569    3.9416   -2.7653 H   0  0  0  0  0  0  0  0  0  0  0  0
   -1.5013    3.0608   -0.5775 H   0  0  0  0  0  0  0  0  0  0  0  0
   -1.2299    1.3047    1.1520 H   0  0  0  0  0  0  0  0  0  0  0  0
    2.2275   -1.3667    0.3336 H   0  0  0  0  0  0  0  0  0  0  0  0
    2.6276   -3.1219    2.0486 H   0  0  0  0  0  0  0  0  0  0  0  0
   -1.4504   -2.7297    3.3583 H   0  0  0  0  0  0  0  0  0  0  0  0
    0.9453    0.6920   -3.1655 H   0  0  0  0  0  0  0  0  0  0  0  0
  1  2  1  0
  2  3  2  0
  3  4  1  0
  4  5  2  0
  5  6  1  0
  6  7  1  0
  7  8  2  0
  8  9  1  0
  9 10  1  0
  9 11  2  0
 11 12  1  0
 12 13  1  0
  5 14  1  0
 14 15  2  0
 15  2  1  0
 12  6  2  0
  1 16  1  0
  1 17  1  0
  1 18  1  0
  3 19  1  0
  4 20  1  0
  7 21  1  0
  8 22  1  0
 11 23  1  0
 15 24  1  0
M  END
$$$$

     RDKit          3D

 24 25  0  0  0  0  0  0  0  0999 V2000
   -0.4406    0.8952   -4.2714 C   0  0  0  0  0  0  0  0  0  0  0  0
   -0.2725    0.5684   -2.8259 C   0  0  0  0  0  0  0  0  0  0  0  0
    0.4857   -0.5234   -2.3886 C   0  0  0  0  0  0  0  0  0  0  0  0
    0.6143   -0.7917   -1.0451 C   0  0  0  0  0  0  0  0  0  0  0  0
   -0.0098    0.0511   -0.1186 C   0  0  0  0  0  0  0  0  0  0  0  0
    0.0843   -0.1842    1.3510 C   0  0  0  0  0  0  0  0  0  0  0  0
   -1.0166    0.0689    2.1753 C   0  0  0  0  0  0  0  0  0  0  0  0
   -0.9729   -0.1663    3.5487 C   0  0  0  0  0  0  0  0  0  0  0  0
    0.2043   -0.6473    4.0891 C   0  0  0  0  0  0  0  0  0  0  0  0
    0.2638   -0.8743    5.4162 F   0  0  0  0  0  0  0  0  0  0  0  0
    1.3295   -0.9004    3.3348 C   0  0  0  0  0  0  0  0  0  0  0  0
    1.2361   -0.6540    1.9870 C   0  0  0  0  0  0  0  0  0  0  0  0
    2.3633   -0.8568    1.2387 F   0  0  0  0  0  0  0  0  0  0  0  0
   -0.7446    1.0951   -0.5217 N   0  0  0  0  0  0  0  0  0  0  0  0
   -0.8626    1.3462   -1.8155 C   0  0  0  0  0  0  0  0  0  0  0  0
   -0.2812    0.0124   -4.8894 H   0  0  0  0  0  0  0  0  0  0  0  0
    0.2781    1.6497   -4.5853 H   0  0  0  0  0  0  0  0  0  0  0  0
   -1.4396    1.2885   -4.4729 H   0  0  0  0  0  0  0  0  0  0  0  0
    0.9642   -1.1623   -3.1159 H   0  0  0  0  0  0  0  0  0  0  0  0
    1.1823   -1.6424   -0.6918 H   0  0  0  0  0  0  0  0  0  0  0  0
   -1.9156    0.4670    1.7339 H   0  0  0  0  0  0  0  0  0  0  0  0
   -1.8335    0.0189    4.1784 H   0  0  0  0  0  0  0  0  0  0  0  0
    2.2464   -1.2670    3.7746 H   0  0  0  0  0  0  0  0  0  0  0  0
   -1.4629    2.2087   -2.0854 H   0  0  0  0  0  0  0  0  0  0  0  0
  1  2  1  0
  2  3  2  0
  3  4  1  0
  4  5  2  0
  5  6  1  0
  6  7  1  0
  7  8  2  0
  8  9  1  0
  9 10  1  0
  9 11  2  0
 11 12  1  0
 12 13  1  0
  5 14  1  0
 14 15  2  0
 15  2  1  0
 12  6  2  0
  1 16  1  0
  1 17  1  0
  1 18  1  0
  3 19  1  0
  4 20  1  0
  7 21  1  0
  8 22  1  0
 11 23  1  0
 15 24  1  0
M  END
$$$$
