
     RDKit          3D

 27 28  0  0  0  0  0  0  0  0999 V2000
   -3.5978    3.1149   -1.8341 C   0  0  0  0  0  0  0  0  0  0  0  0
   -2.5725    2.2120   -1.2415 C   0  0  0  0  0  0  0  0  0  0  0  0
   -2.5612    1.8698    0.1126 C   0  0  0  0  0  0  0  0  0  0  0  0
   -1.5848    1.0317    0.6005 C   0  0  0  0  0  0  0  0  0  0  0  0
   -0.6153    0.5338   -0.2632 C   0  0  0  0  0  0  0  0  0  0  0  0
    0.4624   -0.3585    0.2214 C   0  0  0  0  0  0  0  0  0  0  0  0
    0.9499   -0.2760    1.5321 C   0  0  0  0  0  0  0  0  0  0  0  0
    1.9487   -1.1145    1.9667 C   0  0  0  0  0  0  0  0  0  0  0  0
    2.4999   -2.0669    1.1107 C   0  0  0  0  0  0  0  0  0  0  0  0
    3.5657   -2.9572    1.6181 C   0  0  0  0  0  0  0  0  0  0  0  0
    4.0341   -2.8732    2.7345 O   0  0  0  0  0  0  0  0  0  0  0  0
    3.9860   -3.8659    0.7338 O   0  0  0  0  0  0  0  0  0  0  0  0
    2.0230   -2.1469   -0.1995 C   0  0  0  0  0  0  0  0  0  0  0  0
    1.0257   -1.3042   -0.6361 C   0  0  0  0  0  0  0  0  0  0  0  0
   -0.6200    0.8348   -1.5647 N   0  0  0  0  0  0  0  0  0  0  0  0
   -1.5605    1.6481   -2.0307 C   0  0  0  0  0  0  0  0  0  0  0  0
   -4.2668    3.5179   -1.0742 H   0  0  0  0  0  0  0  0  0  0  0  0
   -3.1330    3.9498   -2.3516 H   0  0  0  0  0  0  0  0  0  0  0  0
   -4.2040    2.5857   -2.5618 H   0  0  0  0  0  0  0  0  0  0  0  0
   -3.3198    2.2578    0.7678 H   0  0  0  0  0  0  0  0  0  0  0  0
   -1.5709    0.7507    1.6432 H   0  0  0  0  0  0  0  0  0  0  0  0
    0.5430    0.4644    2.2012 H   0  0  0  0  0  0  0  0  0  0  0  0
    2.3110   -1.0306    2.9851 H   0  0  0  0  0  0  0  0  0  0  0  0
    4.6689   -4.4119    1.1543 H   0  0  0  0  0  0  0  0  0  0  0  0
    2.4422   -2.8775   -0.8828 H   0  0  0  0  0  0  0  0  0  0  0  0
    0.6659   -1.3628   -1.6553 H   0  0  0  0  0  0  0  0  0  0  0  0
   -1.5197    1.8746   -3.0867 H   0  0  0  0  0  0  0  0  0  0  0  0
  1  2  1  0
  2  3  2  0
  3  4  1  0
  4  5  2  0
  5  6  1  0
  6  7  1  0
  7  8  2  0
  8  9  1  0
  9 10  1  0
 10 11  2  0
 10 12  1  0
  9 13  2  0
 13 14  1  0
  5 15  1  0
 15 16  2  0
 16  2  1  0
 14  6  2  0
  1 17  1  0
  1 18  1  0
  1 19  1  0
  3 20  1  0
  4 21  1  0
  7 22  1  0
  8 23  1  0
 12 24  1  0
 13 25  1  0
 14 26  1  0
 16 27  1  0
M  END
$$$$

     RDKit          3D

 27 28  0  0  0  0  0  0  0  0999 V2000
   -0.7770    4.4732   -2.3280 C   0  0  0  0  0  0  0  0  0  0  0  0
   -0.6084    3.1533   -1.6593 C   0  0  0  0  0  0  0  0  0  0  0  0
   -1.2877    2.0100   -2.0935 C   0  0  0  0  0  0  0  0  0  0  0  0
   -1.0690    0.8046   -1.4683 C   0  0  0  0  0  0  0  0  0  0  0  0
   -0.1727    0.7353   -0.4066 C   0  0  0  0  0  0  0  0  0  0  0  0
    0.1134   -0.5472    0.2798 C   0  0  0  0  0  0  0  0  0  0  0  0
    0.0014   -1.7740   -0.3836 C   0  0  0  0  0  0  0  0  0  0  0  0
    0.2639   -2.9552    0.2726 C   0  0  0  0  0  0  0  0  0  0  0  0
    0.6573   -2.9575    1.6105 C   0  0  0  0  0  0  0  0  0  0  0  0
    0.9338   -4.2468    2.2797 C   0  0  0  0  0  0  0  0  0  0  0  0
    0.8380   -5.3229    1.7268 O   0  0  0  0  0  0  0  0  0  0  0  0
    1.2957   -4.1323    3.5581 O   0  0  0  0  0  0  0  0  0  0  0  0
    0.7808   -1.7350    2.2725 C   0  0  0  0  0  0  0  0  0  0  0  0
    0.5173   -0.5531    1.6162 C   0  0  0  0  0  0  0  0  0  0  0  0
    0.4616    1.8191    0.0423 N   0  0  0  0  0  0  0  0  0  0  0  0
    0.2544    2.9804   -0.5703 C   0  0  0  0  0  0  0  0  0  0  0  0
   -1.8280    4.6995   -2.4787 H   0  0  0  0  0  0  0  0  0  0  0  0
   -0.3282    5.2815   -1.7511 H   0  0  0  0  0  0  0  0  0  0  0  0
   -0.3135    4.4699   -3.3094 H   0  0  0  0  0  0  0  0  0  0  0  0
   -1.9815    2.0811   -2.9124 H   0  0  0  0  0  0  0  0  0  0  0  0
   -1.5920   -0.0835   -1.7892 H   0  0  0  0  0  0  0  0  0  0  0  0
   -0.2878   -1.7907   -1.4242 H   0  0  0  0  0  0  0  0  0  0  0  0
    0.1628   -3.8931   -0.2604 H   0  0  0  0  0  0  0  0  0  0  0  0
    1.4577   -5.0213    3.9138 H   0  0  0  0  0  0  0  0  0  0  0  0
    1.0865   -1.7144    3.3133 H   0  0  0  0  0  0  0  0  0  0  0  0
    0.6236    0.3926    2.1310 H   0  0  0  0  0  0  0  0  0  0  0  0
    0.7976    3.8265   -0.1819 H   0  0  0  0  0  0  0  0  0  0  0  0
  1  2  1  0
  2  3  2  0
  3  4  1  0
  4  5  2  0
  5  6  1  0
  6  7  1  0
  7  8  2  0
  8  9  1  0
  9 10  1  0
 10 11  2  0
 10 12  1  0
  9 13  2  0
 13 14  1  0
  5 15  1  0
 15 16  2  0
 16  2  1  0
 14  6  2  0
  1 17  1  0
  1 18  1  0
  1 19  1  0
  3 20  1  0
  4 21  1  0
  7 22  1  0
  8 23  1  0
 12 24  1  0
 13 25  1  0
 14 26  1  0
 16 27  1  0
M  END
$$$$

     RDKit          3D

 27 28  0  0  0  0  0  0  0  0999 V2000
    1.1761   -1.8940   -4.5972 C   0  0  0  0  0  0  0  0  0  0  0  0
    0.7988   -1.3299   -3.2699 C   0  0  0  0  0  0  0  0  0  0  0  0
   -0.4810   -0.8345   -3.0026 C   0  0  0  0  0  0  0  0  0  0  0  0
   -0.7786   -0.3349   -1.7549 C   0  0  0  0  0  0  0  0  0  0  0  0
    0.2028   -0.3215   -0.7689 C   0  0  0  0  0  0  0  0  0  0  0  0
   -0.0601    0.2158    0.5875 C   0  0  0  0  0  0  0  0  0  0  0  0
    0.7339   -0.1876    1.6630 C   0  0  0  0  0  0  0  0  0  0  0  0
    0.4891    0.2853    2.9344 C   0  0  0  0  0  0  0  0  0  0  0  0
   -0.5490    1.1896    3.1723 C   0  0  0  0  0  0  0  0  0  0  0  0
   -0.7841    1.6721    4.5492 C   0  0  0  0  0  0  0  0  0  0  0  0
   -0.1167    1.3307    5.5045 O   0  0  0  0  0  0  0  0  0  0  0  0
   -1.8076    2.5238    4.6585 O   0  0  0  0  0  0  0  0  0  0  0  0
   -1.3297    1.6090    2.0977 C   0  0  0  0  0  0  0  0  0  0  0  0
   -1.0869    1.1371    0.8313 C   0  0  0  0  0  0  0  0  0  0  0  0
    1.4264   -0.8069   -1.0014 N   0  0  0  0  0  0  0  0  0  0  0  0
    1.7080   -1.2883   -2.2062 C   0  0  0  0  0  0  0  0  0  0  0  0
    0.5305   -1.5160   -5.3867 H   0  0  0  0  0  0  0  0  0  0  0  0
    2.2066   -1.6553   -4.8522 H   0  0  0  0  0  0  0  0  0  0  0  0
    1.0855   -2.9746   -4.5949 H   0  0  0  0  0  0  0  0  0  0  0  0
   -1.2303   -0.8481   -3.7730 H   0  0  0  0  0  0  0  0  0  0  0  0
   -1.7717    0.0248   -1.5341 H   0  0  0  0  0  0  0  0  0  0  0  0
    1.5445   -0.8757    1.4864 H   0  0  0  0  0  0  0  0  0  0  0  0
    1.1059   -0.0509    3.7594 H   0  0  0  0  0  0  0  0  0  0  0  0
   -1.8978    2.7848    5.5873 H   0  0  0  0  0  0  0  0  0  0  0  0
   -2.1356    2.3173    2.2506 H   0  0  0  0  0  0  0  0  0  0  0  0
   -1.6897    1.4901    0.0076 H   0  0  0  0  0  0  0  0  0  0  0  0
    2.7110   -1.6622   -2.3479 H   0  0  0  0  0  0  0  0  0  0  0  0
  1  2  1  0
  2  3  2  0
  3  4  1  0
  4  5  2  0
  5  6  1  0
  6  7  1  0
  7  8  2  0
  8  9  1  0
  9 10  1  0
 10 11  2  0
 10 12  1  0
  9 13  2  0
 13 14  1  0
  5 15  1  0
 15 16  2  0
 16  2  1  0
 14  6  2  0
  1 17  1  0
  1 18  1  0
  1 19  1  0
  3 20  1  0
  4 21  1  0
  7 22  1  0
  8 23  1  0
 12 24  1  0
 13 25  1  0
 14 26  1  0
 16 27  1  0
M  END
$$$$

     RDKit          3D

 27 28  0  0  0  0  0  0  0  0999 V2000
   -2.3667    3.4699   -2.8953 C   0  0  0  0  0  0  0  0  0  0  0  0
   -1.7308    2.4360   -2.0284 C   0  0  0  0  0  0  0  0  0  0  0  0
   -2.4646    1.4179   -1.4104 C   0  0  0  0  0  0  0  0  0  0  0  0
   -1.8213    0.4848   -0.6296 C   0  0  0  0  0  0  0  0  0  0  0  0
   -0.4429    0.5693   -0.4604 C   0  0  0  0  0  0  0  0  0  0  0  0
    0.2951   -0.4008    0.3802 C   0  0  0  0  0  0  0  0  0  0  0  0
   -0.3144   -1.0291    1.4715 C   0  0  0  0  0  0  0  0  0  0  0  0
    0.3821   -1.9332    2.2381 C   0  0  0  0  0  0  0  0  0  0  0  0
    1.7093   -2.2461    1.9445 C   0  0  0  0  0  0  0  0  0  0  0  0
    2.4166   -3.2337    2.7867 C   0  0  0  0  0  0  0  0  0  0  0  0
    1.9002   -3.8033    3.7258 O   0  0  0  0  0  0  0  0  0  0  0  0
    3.6862   -3.4439    2.4360 O   0  0  0  0  0  0  0  0  0  0  0  0
    2.3248   -1.6149    0.8609 C   0  0  0  0  0  0  0  0  0  0  0  0
    1.6291   -0.7042    0.0970 C   0  0  0  0  0  0  0  0  0  0  0  0
    0.2771    1.5206   -1.0584 N   0  0  0  0  0  0  0  0  0  0  0  0
   -0.3467    2.4205   -1.8089 C   0  0  0  0  0  0  0  0  0  0  0  0
   -2.2886    3.1898   -3.9412 H   0  0  0  0  0  0  0  0  0  0  0  0
   -3.4250    3.5845   -2.6706 H   0  0  0  0  0  0  0  0  0  0  0  0
   -1.8865    4.4384   -2.7789 H   0  0  0  0  0  0  0  0  0  0  0  0
   -3.5285    1.3609   -1.5561 H   0  0  0  0  0  0  0  0  0  0  0  0
   -2.3759   -0.3152   -0.1619 H   0  0  0  0  0  0  0  0  0  0  0  0
   -1.3369   -0.7938    1.7195 H   0  0  0  0  0  0  0  0  0  0  0  0
   -0.1083   -2.4015    3.0839 H   0  0  0  0  0  0  0  0  0  0  0  0
    4.0692   -4.0982    3.0402 H   0  0  0  0  0  0  0  0  0  0  0  0
    3.3573   -1.8425    0.6148 H   0  0  0  0  0  0  0  0  0  0  0  0
    2.1132   -0.2060   -0.7333 H   0  0  0  0  0  0  0  0  0  0  0  0
    0.2769    3.1737   -2.2656 H   0  0  0  0  0  0  0  0  0  0  0  0
  1  2  1  0
  2  3  2  0
  3  4  1  0
  4  5  2  0
  5  6  1  0
  6  7  1  0
  7  8  2  0
  8  9  1  0
  9 10  1  0
 10 11  2  0
 10 12  1  0
  9 13  2  0
 13 14  1  0
  5 15  1  0
 15 16  2  0
 16  2  1  0
 14  6  2  0
  1 17  1  0
  1 18  1  0
  1 19  1  0
  3 20  1  0
  4 21  1  0
  7 22  1  0
  8 23  1  0
 12 24  1  0
 13 25  1  0
 14 26  1  0
 16 27  1  0
M  END
$$$$

     RDKit          3D

 27 28  0  0  0  0  0  0  0  0999 V2000
   -3.2175    3.6123   -1.6306 C   0  0  0  0  0  0  0  0  0  0  0  0
   -2.3100    2.5223   -1.1796 C   0  0  0  0  0  0  0  0  0  0  0  0
   -2.7773    1.2671   -0.7852 C   0  0  0  0  0  0  0  0  0  0  0  0
   -1.8893    0.3081   -0.3536 C   0  0  0  0  0  0  0  0  0  0  0  0
   -0.5298    0.6036   -0.3070 C   0  0  0  0  0  0  0  0  0  0  0  0
    0.4641   -0.3870    0.1699 C   0  0  0  0  0  0  0  0  0  0  0  0
    0.1034   -1.4201    1.0431 C   0  0  0  0  0  0  0  0  0  0  0  0
    1.0336   -2.3407    1.4733 C   0  0  0  0  0  0  0  0  0  0  0  0
    2.3590   -2.2609    1.0494 C   0  0  0  0  0  0  0  0  0  0  0  0
    3.3860   -3.2292    1.4847 C   0  0  0  0  0  0  0  0  0  0  0  0
    4.5460   -3.1796    1.1321 O   0  0  0  0  0  0  0  0  0  0  0  0
    2.9274   -4.1753    2.3089 O   0  0  0  0  0  0  0  0  0  0  0  0
    2.7242   -1.2267    0.1834 C   0  0  0  0  0  0  0  0  0  0  0  0
    1.7972   -0.3062   -0.2441 C   0  0  0  0  0  0  0  0  0  0  0  0
   -0.0641    1.7951   -0.6951 N   0  0  0  0  0  0  0  0  0  0  0  0
   -0.9244    2.7133   -1.1142 C   0  0  0  0  0  0  0  0  0  0  0  0
   -4.2192    3.2417   -1.8324 H   0  0  0  0  0  0  0  0  0  0  0  0
   -3.2932    4.3887   -0.8752 H   0  0  0  0  0  0  0  0  0  0  0  0
   -2.8421    4.0851   -2.5337 H   0  0  0  0  0  0  0  0  0  0  0  0
   -3.8295    1.0538   -0.8239 H   0  0  0  0  0  0  0  0  0  0  0  0
   -2.2408   -0.6734   -0.0705 H   0  0  0  0  0  0  0  0  0  0  0  0
   -0.9159   -1.4954    1.3916 H   0  0  0  0  0  0  0  0  0  0  0  0
    0.7178   -3.1299    2.1473 H   0  0  0  0  0  0  0  0  0  0  0  0
    3.6566   -4.7670    2.5387 H   0  0  0  0  0  0  0  0  0  0  0  0
    3.7526   -1.1546   -0.1507 H   0  0  0  0  0  0  0  0  0  0  0  0
    2.0891    0.4938   -0.9082 H   0  0  0  0  0  0  0  0  0  0  0  0
   -0.5038    3.6611   -1.4185 H   0  0  0  0  0  0  0  0  0  0  0  0
  1  2  1  0
  2  3  2  0
  3  4  1  0
  4  5  2  0
  5  6  1  0
  6  7  1  0
  7  8  2  0
  8  9  1  0
  9 10  1  0
 10 11  2  0
 10 12  1  0
  9 13  2  0
 13 14  1  0
  5 15  1  0
 15 16  2  0
 16  2  1  0
 14  6  2  0
  1 17  1  0
  1 18  1  0
  1 19  1  0
  3 20  1  0
  4 21  1  0
  7 22  1  0
  8 23  1  0
 12 24  1  0
 13 25  1  0
 14 26  1  0
 16 27  1  0
M  END
$$$$

     RDKit          3D

 27 28  0  0  0  0  0  0  0  0999 V2000
    0.6027    4.8336    1.5145 C   0  0  0  0  0  0  0  0  0  0  0  0
    0.3931    3.4091    1.1309 C   0  0  0  0  0  0  0  0  0  0  0  0
   -0.1707    2.4668    1.9938 C   0  0  0  0  0  0  0  0  0  0  0  0
   -0.3264    1.1624    1.5788 C   0  0  0  0  0  0  0  0  0  0  0  0
    0.0839    0.7967    0.3010 C   0  0  0  0  0  0  0  0  0  0  0  0
   -0.0467   -0.5962   -0.1845 C   0  0  0  0  0  0  0  0  0  0  0  0
    0.0155   -1.6831    0.6941 C   0  0  0  0  0  0  0  0  0  0  0  0
   -0.1153   -2.9701    0.2297 C   0  0  0  0  0  0  0  0  0  0  0  0
   -0.3090   -3.2232   -1.1276 C   0  0  0  0  0  0  0  0  0  0  0  0
   -0.4459   -4.6222   -1.5854 C   0  0  0  0  0  0  0  0  0  0  0  0
   -0.3962   -5.5795   -0.8380 O   0  0  0  0  0  0  0  0  0  0  0  0
   -0.6137   -4.7496   -2.9030 O   0  0  0  0  0  0  0  0  0  0  0  0
   -0.3666   -2.1414   -2.0100 C   0  0  0  0  0  0  0  0  0  0  0  0
   -0.2282   -0.8529   -1.5451 C   0  0  0  0  0  0  0  0  0  0  0  0
    0.6090    1.6873   -0.5419 N   0  0  0  0  0  0  0  0  0  0  0  0
    0.7601    2.9426   -0.1391 C   0  0  0  0  0  0  0  0  0  0  0  0
    0.2995    5.0233    2.5434 H   0  0  0  0  0  0  0  0  0  0  0  0
    1.6479    5.1128    1.4108 H   0  0  0  0  0  0  0  0  0  0  0  0
    0.0322    5.4953    0.8704 H   0  0  0  0  0  0  0  0  0  0  0  0
   -0.4794    2.7617    2.9787 H   0  0  0  0  0  0  0  0  0  0  0  0
   -0.7775    0.4295    2.2308 H   0  0  0  0  0  0  0  0  0  0  0  0
    0.1815   -1.5070    1.7440 H   0  0  0  0  0  0  0  0  0  0  0  0
   -0.0624   -3.7950    0.9306 H   0  0  0  0  0  0  0  0  0  0  0  0
   -0.7079   -5.6885   -3.1190 H   0  0  0  0  0  0  0  0  0  0  0  0
   -0.5227   -2.3134   -3.0706 H   0  0  0  0  0  0  0  0  0  0  0  0
   -0.2571   -0.0193   -2.2341 H   0  0  0  0  0  0  0  0  0  0  0  0
    1.2004    3.6205   -0.8531 H   0  0  0  0  0  0  0  0  0  0  0  0
  1  2  1  0
  2  3  2  0
  3  4  1  0
  4  5  2  0
  5  6  1  0
  6  7  1  0
  7  8  2  0
  8  9  1  0
  9 10  1  0
 10 11  2  0
 10 12  1  0
  9 13  2  0
 13 14  1  0
  5 15  1  0
 15 16  2  0
 16  2  1  0
 14  6  2  0
  1 17  1  0
  1 18  1  0
  1 19  1  0
  3 20  1  0
  4 21  1  0
  7 22  1  0
  8 23  1  0
 12 24  1  0
 13 25  1  0
 14 26  1  0
 16 27  1  0
M  END
$$$$

     RDKit          3D

 27 28  0  0  0  0  0  0  0  0999 V2000
    2.3076    1.9589   -4.1121 C   0  0  0  0  0  0  0  0  0  0  0  0
    1.6167    1.4311   -2.9027 C   0  0  0  0  0  0  0  0  0  0  0  0
    0.7446    2.2270   -2.1521 C   0  0  0  0  0  0  0  0  0  0  0  0
    0.1196    1.7050   -1.0442 C   0  0  0  0  0  0  0  0  0  0  0  0
    0.3683    0.3859   -0.6714 C   0  0  0  0  0  0  0  0  0  0  0  0
   -0.2629   -0.2261    0.5245 C   0  0  0  0  0  0  0  0  0  0  0  0
   -0.8834    0.5447    1.5152 C   0  0  0  0  0  0  0  0  0  0  0  0
   -1.4740   -0.0494    2.6043 C   0  0  0  0  0  0  0  0  0  0  0  0
   -1.4706   -1.4340    2.7536 C   0  0  0  0  0  0  0  0  0  0  0  0
   -2.1371   -2.0331    3.9287 C   0  0  0  0  0  0  0  0  0  0  0  0
   -2.6824   -1.3824    4.7950 O   0  0  0  0  0  0  0  0  0  0  0  0
   -2.0952   -3.3670    3.9592 O   0  0  0  0  0  0  0  0  0  0  0  0
   -0.8366   -2.2082    1.7812 C   0  0  0  0  0  0  0  0  0  0  0  0
   -0.2420   -1.6150    0.6912 C   0  0  0  0  0  0  0  0  0  0  0  0
    1.1895   -0.3919   -1.3842 N   0  0  0  0  0  0  0  0  0  0  0  0
    1.7882    0.1151   -2.4565 C   0  0  0  0  0  0  0  0  0  0  0  0
    1.5903    2.1964   -4.8886 H   0  0  0  0  0  0  0  0  0  0  0  0
    2.8307    2.8843   -3.8874 H   0  0  0  0  0  0  0  0  0  0  0  0
    3.0285    1.2495   -4.5126 H   0  0  0  0  0  0  0  0  0  0  0  0
    0.5696    3.2458   -2.4474 H   0  0  0  0  0  0  0  0  0  0  0  0
   -0.5692    2.3110   -0.4779 H   0  0  0  0  0  0  0  0  0  0  0  0
   -0.8877    1.6188    1.4373 H   0  0  0  0  0  0  0  0  0  0  0  0
   -1.9487    0.5714    3.3535 H   0  0  0  0  0  0  0  0  0  0  0  0
   -2.5518   -3.6737    4.7535 H   0  0  0  0  0  0  0  0  0  0  0  0
   -0.8081   -3.2881    1.8849 H   0  0  0  0  0  0  0  0  0  0  0  0
    0.2549   -2.2238   -0.0508 H   0  0  0  0  0  0  0  0  0  0  0  0
    2.4412   -0.5523   -2.9940 H   0  0  0  0  0  0  0  0  0  0  0  0
  1  2  1  0
  2  3  2  0
  3  4  1  0
  4  5  2  0
  5  6  1  0
  6  7  1  0
  7  8  2  0
  8  9  1  0
  9 10  1  0
 10 11  2  0
 10 12  1  0
  9 13  2  0
 13 14  1  0
  5 15  1  0
 15 16  2  0
 16  2  1  0
 14  6  2  0
  1 17  1  0
  1 18  1  0
  1 19  1  0
  3 20  1  0
  4 21  1  0
  7 22  1  0
  8 23  1  0
 12 24  1  0
 13 25  1  0
 14 26  1  0
 16 27  1  0
M  END
$$$$

     RDKit          3D

 27 28  0  0  0  0  0  0  0  0999 V2000
    1.6954   -0.0162   -4.8169 C   0  0  0  0  0  0  0  0  0  0  0  0
    1.1765    0.0186   -3.4203 C   0  0  0  0  0  0  0  0  0  0  0  0
    0.1250    0.8488   -3.0267 C   0  0  0  0  0  0  0  0  0  0  0  0
   -0.3129    0.8301   -1.7214 C   0  0  0  0  0  0  0  0  0  0  0  0
    0.3020   -0.0151   -0.8045 C   0  0  0  0  0  0  0  0  0  0  0  0
   -0.1334   -0.0637    0.6109 C   0  0  0  0  0  0  0  0  0  0  0  0
   -0.7336    1.0398    1.2293 C   0  0  0  0  0  0  0  0  0  0  0  0
   -1.1568    0.9727    2.5385 C   0  0  0  0  0  0  0  0  0  0  0  0
   -0.9889   -0.1971    3.2791 C   0  0  0  0  0  0  0  0  0  0  0  0
   -1.4381   -0.3061    4.6819 C   0  0  0  0  0  0  0  0  0  0  0  0
   -1.3158   -1.3111    5.3519 O   0  0  0  0  0  0  0  0  0  0  0  0
   -1.9961    0.8103    5.1642 O   0  0  0  0  0  0  0  0  0  0  0  0
   -0.3781   -1.2959    2.6683 C   0  0  0  0  0  0  0  0  0  0  0  0
    0.0482   -1.2263    1.3623 C   0  0  0  0  0  0  0  0  0  0  0  0
    1.3001   -0.8251   -1.1659 N   0  0  0  0  0  0  0  0  0  0  0  0
    1.7191   -0.8037   -2.4243 C   0  0  0  0  0  0  0  0  0  0  0  0
    1.2716    0.7814   -5.4221 H   0  0  0  0  0  0  0  0  0  0  0  0
    2.7787    0.0778   -4.8356 H   0  0  0  0  0  0  0  0  0  0  0  0
    1.4505   -0.9596   -5.2960 H   0  0  0  0  0  0  0  0  0  0  0  0
   -0.3429    1.4967   -3.7427 H   0  0  0  0  0  0  0  0  0  0  0  0
   -1.1390    1.4510   -1.4094 H   0  0  0  0  0  0  0  0  0  0  0  0
   -0.8574    1.9603    0.6773 H   0  0  0  0  0  0  0  0  0  0  0  0
   -1.6202    1.8444    2.9878 H   0  0  0  0  0  0  0  0  0  0  0  0
   -2.2727    0.6467    6.0761 H   0  0  0  0  0  0  0  0  0  0  0  0
   -0.2406   -2.2110    3.2321 H   0  0  0  0  0  0  0  0  0  0  0  0
    0.5305   -2.0750    0.8985 H   0  0  0  0  0  0  0  0  0  0  0  0
    2.5288   -1.4726   -2.6721 H   0  0  0  0  0  0  0  0  0  0  0  0
  1  2  1  0
  2  3  2  0
  3  4  1  0
  4  5  2  0
  5  6  1  0
  6  7  1  0
  7  8  2  0
  8  9  1  0
  9 10  1  0
 10 11  2  0
 10 12  1  0
  9 13  2  0
 13 14  1  0
  5 15  1  0
 15 16  2  0
 16  2  1  0
 14  6  2  0
  1 17  1  0
  1 18  1  0
  1 19  1  0
  3 20  1  0
  4 21  1  0
  7 22  1  0
  8 23  1  0
 12 24  1  0
 13 25  1  0
 14 26  1  0
 16 27  1  0
M  END
$$$$

     RDKit          3D

 27 28  0  0  0  0  0  0  0  0999 V2000
    2.6138    4.3824   -0.0892 C   0  0  0  0  0  0  0  0  0  0  0  0
    1.9086    3.0719   -0.0380 C   0  0  0  0  0  0  0  0  0  0  0  0
    2.4763    1.9312    0.5336 C   0  0  0  0  0  0  0  0  0  0  0  0
    1.7641    0.7534    0.5726 C   0  0  0  0  0  0  0  0  0  0  0  0
    0.4805    0.7108    0.0387 C   0  0  0  0  0  0  0  0  0  0  0  0
   -0.3315   -0.5315    0.0521 C   0  0  0  0  0  0  0  0  0  0  0  0
   -0.0278   -1.6106    0.8916 C   0  0  0  0  0  0  0  0  0  0  0  0
   -0.7826   -2.7581    0.8623 C   0  0  0  0  0  0  0  0  0  0  0  0
   -1.8763   -2.8758    0.0059 C   0  0  0  0  0  0  0  0  0  0  0  0
   -2.6524   -4.1339   -0.0009 C   0  0  0  0  0  0  0  0  0  0  0  0
   -2.3895   -5.0901    0.6989 O   0  0  0  0  0  0  0  0  0  0  0  0
   -3.6789   -4.1399   -0.8509 O   0  0  0  0  0  0  0  0  0  0  0  0
   -2.1981   -1.7955   -0.8173 C   0  0  0  0  0  0  0  0  0  0  0  0
   -1.4429   -0.6458   -0.7897 C   0  0  0  0  0  0  0  0  0  0  0  0
   -0.0734    1.7912   -0.5251 N   0  0  0  0  0  0  0  0  0  0  0  0
    0.6145    2.9246   -0.5536 C   0  0  0  0  0  0  0  0  0  0  0  0
    2.2129    5.0619    0.6547 H   0  0  0  0  0  0  0  0  0  0  0  0
    3.6779    4.2699    0.1070 H   0  0  0  0  0  0  0  0  0  0  0  0
    2.4979    4.8586   -1.0591 H   0  0  0  0  0  0  0  0  0  0  0  0
    3.4683    1.9743    0.9404 H   0  0  0  0  0  0  0  0  0  0  0  0
    2.2012   -0.1319    1.0059 H   0  0  0  0  0  0  0  0  0  0  0  0
    0.8041   -1.5398    1.5758 H   0  0  0  0  0  0  0  0  0  0  0  0
   -0.5188   -3.5815    1.5135 H   0  0  0  0  0  0  0  0  0  0  0  0
   -4.1237   -4.9956   -0.8005 H   0  0  0  0  0  0  0  0  0  0  0  0
   -3.0483   -1.8610   -1.4896 H   0  0  0  0  0  0  0  0  0  0  0  0
   -1.7030    0.1912   -1.4219 H   0  0  0  0  0  0  0  0  0  0  0  0
    0.1270    3.7696   -1.0172 H   0  0  0  0  0  0  0  0  0  0  0  0
  1  2  1  0
  2  3  2  0
  3  4  1  0
  4  5  2  0
  5  6  1  0
  6  7  1  0
  7  8  2  0
  8  9  1  0
  9 10  1  0
 10 11  2  0
 10 12  1  0
  9 13  2  0
 13 14  1  0
  5 15  1  0
 15 16  2  0
 16  2  1  0
 14  6  2  0
  1 17  1  0
  1 18  1  0
  1 19  1  0
  3 20  1  0
  4 21  1  0
  7 22  1  0
  8 23  1  0
 12 24  1  0
 13 25  1  0
 14 26  1  0
 16 27  1  0
M  END
$$$$

     RDKit          3D

 27 28  0  0  0  0  0  0  0  0999 V2000
   -4.7844    0.1163   -1.7771 C   0  0  0  0  0  0  0  0  0  0  0  0
   -3.3991    0.0340   -1.2365 C   0  0  0  0  0  0  0  0  0  0  0  0
   -3.0467   -0.7957   -0.1683 C   0  0  0  0  0  0  0  0  0  0  0  0
   -1.7474   -0.8195    0.2858 C   0  0  0  0  0  0  0  0  0  0  0  0
   -0.7956   -0.0097   -0.3241 C   0  0  0  0  0  0  0  0  0  0  0  0
    0.6103    0.0168    0.1410 C   0  0  0  0  0  0  0  0  0  0  0  0
    0.9429   -0.2291    1.4784 C   0  0  0  0  0  0  0  0  0  0  0  0
    2.2560   -0.1962    1.8972 C   0  0  0  0  0  0  0  0  0  0  0  0
    3.2811    0.0898    0.9969 C   0  0  0  0  0  0  0  0  0  0  0  0
    4.6977    0.1407    1.4113 C   0  0  0  0  0  0  0  0  0  0  0  0
    5.6123    0.3662    0.6462 O   0  0  0  0  0  0  0  0  0  0  0  0
    4.8926   -0.0898    2.7142 O   0  0  0  0  0  0  0  0  0  0  0  0
    2.9505    0.3382   -0.3380 C   0  0  0  0  0  0  0  0  0  0  0  0
    1.6414    0.3040   -0.7565 C   0  0  0  0  0  0  0  0  0  0  0  0
   -1.1089    0.7726   -1.3598 N   0  0  0  0  0  0  0  0  0  0  0  0
   -2.3622    0.7930   -1.7934 C   0  0  0  0  0  0  0  0  0  0  0  0
   -4.8360   -0.3131   -2.7733 H   0  0  0  0  0  0  0  0  0  0  0  0
   -5.1131    1.1490   -1.8584 H   0  0  0  0  0  0  0  0  0  0  0  0
   -5.4932   -0.4172   -1.1501 H   0  0  0  0  0  0  0  0  0  0  0  0
   -3.7908   -1.4158    0.2943 H   0  0  0  0  0  0  0  0  0  0  0  0
   -1.4568   -1.4684    1.1011 H   0  0  0  0  0  0  0  0  0  0  0  0
    0.1628   -0.4358    2.1968 H   0  0  0  0  0  0  0  0  0  0  0  0
    2.4822   -0.3934    2.9398 H   0  0  0  0  0  0  0  0  0  0  0  0
    5.8402   -0.0361    2.8975 H   0  0  0  0  0  0  0  0  0  0  0  0
    3.7403    0.5588   -1.0465 H   0  0  0  0  0  0  0  0  0  0  0  0
    1.3915    0.4962   -1.7897 H   0  0  0  0  0  0  0  0  0  0  0  0
   -2.5675    1.4444   -2.6288 H   0  0  0  0  0  0  0  0  0  0  0  0
  1  2  1  0
  2  3  2  0
  3  4  1  0
  4  5  2  0
  5  6  1  0
  6  7  1  0
  7  8  2  0
  8  9  1  0
  9 10  1  0
 10 11  2  0
 10 12  1  0
  9 13  2  0
 13 14  1  0
  5 15  1  0
 15 16  2  0
 16  2  1  0
 14  6  2  0
  1 17  1  0
  1 18  1  0
  1 19  1  0
  3 20  1  0
  4 21  1  0
  7 22  1  0
  8 23  1  0
 12 24  1  0
 13 25  1  0
 14 26  1  0
 16 27  1  0
M  END
$$$$

     RDKit          3D

 27 28  0  0  0  0  0  0  0  0999 V2000
    3.9337    3.2128    0.5119 C   0  0  0  0  0  0  0  0  0  0  0  0
    2.8118    2.2550    0.3026 C   0  0  0  0  0  0  0  0  0  0  0  0
    2.7786    1.3563   -0.7666 C   0  0  0  0  0  0  0  0  0  0  0  0
    1.7179    0.4903   -0.9043 C   0  0  0  0  0  0  0  0  0  0  0  0
    0.6827    0.5191    0.0260 C   0  0  0  0  0  0  0  0  0  0  0  0
   -0.4937   -0.3794   -0.0783 C   0  0  0  0  0  0  0  0  0  0  0  0
   -1.3042   -0.6076    1.0388 C   0  0  0  0  0  0  0  0  0  0  0  0
   -2.3980   -1.4467    0.9632 C   0  0  0  0  0  0  0  0  0  0  0  0
   -2.7180   -2.0857   -0.2373 C   0  0  0  0  0  0  0  0  0  0  0  0
   -3.8664   -3.0051   -0.3636 C   0  0  0  0  0  0  0  0  0  0  0  0
   -4.1588   -3.5800   -1.3925 O   0  0  0  0  0  0  0  0  0  0  0  0
   -4.5709   -3.1542    0.7596 O   0  0  0  0  0  0  0  0  0  0  0  0
   -1.9197   -1.8455   -1.3534 C   0  0  0  0  0  0  0  0  0  0  0  0
   -0.8355   -1.0121   -1.2799 C   0  0  0  0  0  0  0  0  0  0  0  0
    0.7082    1.3605    1.0643 N   0  0  0  0  0  0  0  0  0  0  0  0
    1.7310    2.1953    1.1916 C   0  0  0  0  0  0  0  0  0  0  0  0
    4.5846    2.8717    1.3067 H   0  0  0  0  0  0  0  0  0  0  0  0
    4.5417    3.3205   -0.3844 H   0  0  0  0  0  0  0  0  0  0  0  0
    3.5652    4.1963    0.7930 H   0  0  0  0  0  0  0  0  0  0  0  0
    3.5851    1.3410   -1.4762 H   0  0  0  0  0  0  0  0  0  0  0  0
    1.6966   -0.2148   -1.7195 H   0  0  0  0  0  0  0  0  0  0  0  0
   -1.0694   -0.1170    1.9715 H   0  0  0  0  0  0  0  0  0  0  0  0
   -3.0058   -1.6069    1.8485 H   0  0  0  0  0  0  0  0  0  0  0  0
   -5.2951   -3.7695    0.5925 H   0  0  0  0  0  0  0  0  0  0  0  0
   -2.1599   -2.3249   -2.2932 H   0  0  0  0  0  0  0  0  0  0  0  0
   -0.2444   -0.8280   -2.1623 H   0  0  0  0  0  0  0  0  0  0  0  0
    1.7027    2.8590    2.0413 H   0  0  0  0  0  0  0  0  0  0  0  0
  1  2  1  0
  2  3  2  0
  3  4  1  0
  4  5  2  0
  5  6  1  0
  6  7  1  0
  7  8  2  0
  8  9  1  0
  9 10  1  0
 10 11  2  0
 10 12  1  0
  9 13  2  0
 13 14  1  0
  5 15  1  0
 15 16  2  0
 16  2  1  0
 14  6  2  0
  1 17  1  0
  1 18  1  0
  1 19  1  0
  3 20  1  0
  4 21  1  0
  7 22  1  0
  8 23  1  0
 12 24  1  0
 13 25  1  0
 14 26  1  0
 16 27  1  0
M  END
$$$$

     RDKit          3D

 27 28  0  0  0  0  0  0  0  0999 V2000
    5.0852   -0.4116   -0.1670 C   0  0  0  0  0  0  0  0  0  0  0  0
    3.6013   -0.2783   -0.1762 C   0  0  0  0  0  0  0  0  0  0  0  0
    2.8630   -0.2176   -1.3596 C   0  0  0  0  0  0  0  0  0  0  0  0
    1.4919   -0.1068   -1.3095 C   0  0  0  0  0  0  0  0  0  0  0  0
    0.8520   -0.0709   -0.0753 C   0  0  0  0  0  0  0  0  0  0  0  0
   -0.6240    0.0232    0.0287 C   0  0  0  0  0  0  0  0  0  0  0  0
   -1.4647   -0.4101   -1.0043 C   0  0  0  0  0  0  0  0  0  0  0  0
   -2.8301   -0.3053   -0.8939 C   0  0  0  0  0  0  0  0  0  0  0  0
   -3.4144    0.2341    0.2506 C   0  0  0  0  0  0  0  0  0  0  0  0
   -4.8877    0.3360    0.3225 C   0  0  0  0  0  0  0  0  0  0  0  0
   -5.6286   -0.0312   -0.5665 O   0  0  0  0  0  0  0  0  0  0  0  0
   -5.3475    0.8722    1.4532 O   0  0  0  0  0  0  0  0  0  0  0  0
   -2.5817    0.6582    1.2887 C   0  0  0  0  0  0  0  0  0  0  0  0
   -1.2129    0.5514    1.1800 C   0  0  0  0  0  0  0  0  0  0  0  0
    1.5420   -0.1150    1.0673 N   0  0  0  0  0  0  0  0  0  0  0  0
    2.8634   -0.2164    1.0150 C   0  0  0  0  0  0  0  0  0  0  0  0
    5.5464    0.3555    0.4496 H   0  0  0  0  0  0  0  0  0  0  0  0
    5.3816   -1.3724    0.2419 H   0  0  0  0  0  0  0  0  0  0  0  0
    5.5003   -0.3320   -1.1697 H   0  0  0  0  0  0  0  0  0  0  0  0
    3.3667   -0.2520   -2.3063 H   0  0  0  0  0  0  0  0  0  0  0  0
    0.9161   -0.0367   -2.2186 H   0  0  0  0  0  0  0  0  0  0  0  0
   -1.0377   -0.8421   -1.8951 H   0  0  0  0  0  0  0  0  0  0  0  0
   -3.4561   -0.6470   -1.7100 H   0  0  0  0  0  0  0  0  0  0  0  0
   -6.3141    0.9138    1.4077 H   0  0  0  0  0  0  0  0  0  0  0  0
   -3.0137    1.0762    2.1916 H   0  0  0  0  0  0  0  0  0  0  0  0
   -0.5737    0.8756    1.9915 H   0  0  0  0  0  0  0  0  0  0  0  0
    3.3769   -0.2510    1.9638 H   0  0  0  0  0  0  0  0  0  0  0  0
  1  2  1  0
  2  3  2  0
  3  4  1  0
  4  5  2  0
  5  6  1  0
  6  7  1  0
  7  8  2  0
  8  9  1  0
  9 10  1  0
 10 11  2  0
 10 12  1  0
  9 13  2  0
 13 14  1  0
  5 15  1  0
 15 16  2  0
 16  2  1  0
 14  6  2  0
  1 17  1  0
  1 18  1  0
  1 19  1  0
  3 20  1  0
  4 21  1  0
  7 22  1  0
  8 23  1  0
 12 24  1  0
 13 25  1  0
 14 26  1  0
 16 27  1  0
M  END
$$$$
