
     RDKit          3D

 24 25  0  0  0  0  0  0  0  0999 V2000
    0.6122    3.6137   -4.0798 F   0  0  0  0  0  0  0  0  0  0  0  0
    0.4665    2.7304   -3.0839 C   0  0  0  0  0  0  0  0  0  0  0  0
   -0.4466    2.9997   -2.0801 C   0  0  0  0  0  0  0  0  0  0  0  0
   -0.5921    2.0699   -1.0551 C   0  0  0  0  0  0  0  0  0  0  0  0
    0.1621    0.8939   -1.0253 C   0  0  0  0  0  0  0  0  0  0  0  0
   -0.0150   -0.0759    0.0845 C   0  0  0  0  0  0  0  0  0  0  0  0
    1.0605   -0.7600    0.6585 C   0  0  0  0  0  0  0  0  0  0  0  0
    0.8277   -1.6378    1.6892 C   0  0  0  0  0  0  0  0  0  0  0  0
   -0.4759   -1.8245    2.1298 C   0  0  0  0  0  0  0  0  0  0  0  0
   -0.8258   -2.7833    3.2265 C   0  0  0  0  0  0  0  0  0  0  0  0
   -1.6121   -3.7811    2.7810 F   0  0  0  0  0  0  0  0  0  0  0  0
    0.2627   -3.3402    3.7872 F   0  0  0  0  0  0  0  0  0  0  0  0
   -1.5207   -2.1809    4.2125 F   0  0  0  0  0  0  0  0  0  0  0  0
   -1.4951   -1.0908    1.5119 C   0  0  0  0  0  0  0  0  0  0  0  0
   -1.2640   -0.2500    0.5346 N   0  0  0  0  0  0  0  0  0  0  0  0
    1.0542    0.6942   -2.0773 C   0  0  0  0  0  0  0  0  0  0  0  0
    1.7793   -0.4500   -2.1089 F   0  0  0  0  0  0  0  0  0  0  0  0
    1.2343    1.5829   -3.1067 C   0  0  0  0  0  0  0  0  0  0  0  0
   -1.0255    3.9111   -2.0938 H   0  0  0  0  0  0  0  0  0  0  0  0
   -1.3044    2.2526   -0.2700 H   0  0  0  0  0  0  0  0  0  0  0  0
    2.0603   -0.5883    0.2858 H   0  0  0  0  0  0  0  0  0  0  0  0
    1.6537   -2.1707    2.1480 H   0  0  0  0  0  0  0  0  0  0  0  0
   -2.5347   -1.1973    1.8300 H   0  0  0  0  0  0  0  0  0  0  0  0
    1.9382    1.3824   -3.8989 H   0  0  0  0  0  0  0  0  0  0  0  0
  1  2  1  0
  2  3  1  0
  3  4  2  0
  4  5  1  0
  5  6  1  0
  6  7  2  0
  7  8  1  0
  8  9  2  0
  9 10  1  0
 10 11  1  0
 10 12  1  0
 10 13  1  0
  9 14  1  0
 14 15  2  0
  5 16  2  0
 16 17  1  0
 16 18  1  0
 18  2  2  0
 15  6  1  0
  3 19  1  0
  4 20  1  0
  7 21  1  0
  8 22  1  0
 14 23  1  0
 18 24  1  0
M  END
$$$$

     RDKit          3D

 24 25  0  0  0  0  0  0  0  0999 V2000
    1.7324    1.3999   -5.0115 F   0  0  0  0  0  0  0  0  0  0  0  0
    1.3112    1.0565   -3.7874 C   0  0  0  0  0  0  0  0  0  0  0  0
    1.2827   -0.2835   -3.4417 C   0  0  0  0  0  0  0  0  0  0  0  0
    0.8409   -0.6259   -2.1671 C   0  0  0  0  0  0  0  0  0  0  0  0
    0.4334    0.3489   -1.2515 C   0  0  0  0  0  0  0  0  0  0  0  0
   -0.0331   -0.0388    0.1028 C   0  0  0  0  0  0  0  0  0  0  0  0
   -1.0977    0.6072    0.7392 C   0  0  0  0  0  0  0  0  0  0  0  0
   -1.4853    0.1974    1.9913 C   0  0  0  0  0  0  0  0  0  0  0  0
   -0.8062   -0.8553    2.5905 C   0  0  0  0  0  0  0  0  0  0  0  0
   -1.1450   -1.3495    3.9628 C   0  0  0  0  0  0  0  0  0  0  0  0
   -1.2569   -2.6905    4.0049 F   0  0  0  0  0  0  0  0  0  0  0  0
   -2.2991   -0.8310    4.4159 F   0  0  0  0  0  0  0  0  0  0  0  0
   -0.1845   -1.0336    4.8520 F   0  0  0  0  0  0  0  0  0  0  0  0
    0.2416   -1.4552    1.8841 C   0  0  0  0  0  0  0  0  0  0  0  0
    0.6050   -1.0606    0.6899 N   0  0  0  0  0  0  0  0  0  0  0  0
    0.5033    1.6758   -1.6764 C   0  0  0  0  0  0  0  0  0  0  0  0
    0.1655    2.6580   -0.8068 F   0  0  0  0  0  0  0  0  0  0  0  0
    0.9277    2.0609   -2.9220 C   0  0  0  0  0  0  0  0  0  0  0  0
    1.5935   -1.0401   -4.1464 H   0  0  0  0  0  0  0  0  0  0  0  0
    0.8167   -1.6614   -1.8762 H   0  0  0  0  0  0  0  0  0  0  0  0
   -1.5995    1.4200    0.2382 H   0  0  0  0  0  0  0  0  0  0  0  0
   -2.3089    0.6898    2.4969 H   0  0  0  0  0  0  0  0  0  0  0  0
    0.7984   -2.2925    2.3186 H   0  0  0  0  0  0  0  0  0  0  0  0
    0.9639    3.1032   -3.2002 H   0  0  0  0  0  0  0  0  0  0  0  0
  1  2  1  0
  2  3  1  0
  3  4  2  0
  4  5  1  0
  5  6  1  0
  6  7  2  0
  7  8  1  0
  8  9  2  0
  9 10  1  0
 10 11  1  0
 10 12  1  0
 10 13  1  0
  9 14  1  0
 14 15  2  0
  5 16  2  0
 16 17  1  0
 16 18  1  0
 18  2  2  0
 15  6  1  0
  3 19  1  0
  4 20  1  0
  7 21  1  0
  8 22  1  0
 14 23  1  0
 18 24  1  0
M  END
$$$$

     RDKit          3D

 24 25  0  0  0  0  0  0  0  0999 V2000
   -4.4575    1.7650    2.6588 F   0  0  0  0  0  0  0  0  0  0  0  0
   -3.3727    1.3211    2.0087 C   0  0  0  0  0  0  0  0  0  0  0  0
   -2.3531    0.7306    2.7327 C   0  0  0  0  0  0  0  0  0  0  0  0
   -1.2312    0.2783    2.0431 C   0  0  0  0  0  0  0  0  0  0  0  0
   -1.1278    0.4116    0.6568 C   0  0  0  0  0  0  0  0  0  0  0  0
    0.0809   -0.0681   -0.0577 C   0  0  0  0  0  0  0  0  0  0  0  0
    0.7148    0.7124   -1.0266 C   0  0  0  0  0  0  0  0  0  0  0  0
    1.8424    0.2320   -1.6437 C   0  0  0  0  0  0  0  0  0  0  0  0
    2.3225   -1.0197   -1.2829 C   0  0  0  0  0  0  0  0  0  0  0  0
    3.5500   -1.6163   -1.8986 C   0  0  0  0  0  0  0  0  0  0  0  0
    4.4777   -1.9135   -0.9632 F   0  0  0  0  0  0  0  0  0  0  0  0
    3.2796   -2.7738   -2.5277 F   0  0  0  0  0  0  0  0  0  0  0  0
    4.1296   -0.7924   -2.7901 F   0  0  0  0  0  0  0  0  0  0  0  0
    1.6300   -1.7398   -0.3030 C   0  0  0  0  0  0  0  0  0  0  0  0
    0.5554   -1.2723    0.2846 N   0  0  0  0  0  0  0  0  0  0  0  0
   -2.2031    1.0085    0.0011 C   0  0  0  0  0  0  0  0  0  0  0  0
   -2.1612    1.1226   -1.3477 F   0  0  0  0  0  0  0  0  0  0  0  0
   -3.3253    1.4722    0.6378 C   0  0  0  0  0  0  0  0  0  0  0  0
   -2.4282    0.6267    3.8046 H   0  0  0  0  0  0  0  0  0  0  0  0
   -0.4300   -0.1940    2.5840 H   0  0  0  0  0  0  0  0  0  0  0  0
    0.3099    1.6832   -1.2767 H   0  0  0  0  0  0  0  0  0  0  0  0
    2.3510    0.8271   -2.3947 H   0  0  0  0  0  0  0  0  0  0  0  0
    1.9774   -2.7288    0.0141 H   0  0  0  0  0  0  0  0  0  0  0  0
   -4.1310    1.9274    0.0864 H   0  0  0  0  0  0  0  0  0  0  0  0
  1  2  1  0
  2  3  1  0
  3  4  2  0
  4  5  1  0
  5  6  1  0
  6  7  2  0
  7  8  1  0
  8  9  2  0
  9 10  1  0
 10 11  1  0
 10 12  1  0
 10 13  1  0
  9 14  1  0
 14 15  2  0
  5 16  2  0
 16 17  1  0
 16 18  1  0
 18  2  2  0
 15  6  1  0
  3 19  1  0
  4 20  1  0
  7 21  1  0
  8 22  1  0
 14 23  1  0
 18 24  1  0
M  END
$$$$

     RDKit          3D

 24 25  0  0  0  0  0  0  0  0999 V2000
    2.1567   -0.8457   -4.9737 F   0  0  0  0  0  0  0  0  0  0  0  0
    1.6328   -0.6628   -3.7559 C   0  0  0  0  0  0  0  0  0  0  0  0
    2.3886   -0.0199   -2.7934 C   0  0  0  0  0  0  0  0  0  0  0  0
    1.8289    0.1676   -1.5343 C   0  0  0  0  0  0  0  0  0  0  0  0
    0.5273   -0.2552   -1.2398 C   0  0  0  0  0  0  0  0  0  0  0  0
   -0.0508   -0.0008    0.1044 C   0  0  0  0  0  0  0  0  0  0  0  0
   -1.4237    0.1701    0.3203 C   0  0  0  0  0  0  0  0  0  0  0  0
   -1.8836    0.4010    1.5934 C   0  0  0  0  0  0  0  0  0  0  0  0
   -0.9675    0.4806    2.6348 C   0  0  0  0  0  0  0  0  0  0  0  0
   -1.3807    0.7431    4.0515 C   0  0  0  0  0  0  0  0  0  0  0  0
   -0.9813    1.9583    4.4718 F   0  0  0  0  0  0  0  0  0  0  0  0
   -0.8275   -0.1370    4.9012 F   0  0  0  0  0  0  0  0  0  0  0  0
   -2.7146    0.6855    4.2100 F   0  0  0  0  0  0  0  0  0  0  0  0
    0.3885    0.3215    2.3365 C   0  0  0  0  0  0  0  0  0  0  0  0
    0.8196    0.0891    1.1217 N   0  0  0  0  0  0  0  0  0  0  0  0
   -0.1545   -0.9156   -2.2618 C   0  0  0  0  0  0  0  0  0  0  0  0
   -1.3846   -1.4210   -2.0074 F   0  0  0  0  0  0  0  0  0  0  0  0
    0.3569   -1.1273   -3.5160 C   0  0  0  0  0  0  0  0  0  0  0  0
    3.3879    0.3244   -3.0151 H   0  0  0  0  0  0  0  0  0  0  0  0
    2.4089    0.6441   -0.7673 H   0  0  0  0  0  0  0  0  0  0  0  0
   -2.1078    0.1262   -0.5141 H   0  0  0  0  0  0  0  0  0  0  0  0
   -2.9463    0.5180    1.7761 H   0  0  0  0  0  0  0  0  0  0  0  0
    1.1452    0.3963    3.1251 H   0  0  0  0  0  0  0  0  0  0  0  0
   -0.2186   -1.6406   -4.2681 H   0  0  0  0  0  0  0  0  0  0  0  0
  1  2  1  0
  2  3  1  0
  3  4  2  0
  4  5  1  0
  5  6  1  0
  6  7  2  0
  7  8  1  0
  8  9  2  0
  9 10  1  0
 10 11  1  0
 10 12  1  0
 10 13  1  0
  9 14  1  0
 14 15  2  0
  5 16  2  0
 16 17  1  0
 16 18  1  0
 18  2  2  0
 15  6  1  0
  3 19  1  0
  4 20  1  0
  7 21  1  0
  8 22  1  0
 14 23  1  0
 18 24  1  0
M  END
$$$$

     RDKit          3D

 24 25  0  0  0  0  0  0  0  0999 V2000
   -4.6586    0.3679    2.8689 F   0  0  0  0  0  0  0  0  0  0  0  0
   -3.5180    0.2989    2.1719 C   0  0  0  0  0  0  0  0  0  0  0  0
   -3.5729    0.3650    0.7922 C   0  0  0  0  0  0  0  0  0  0  0  0
   -2.3792    0.2886    0.0821 C   0  0  0  0  0  0  0  0  0  0  0  0
   -1.1513    0.1285    0.7334 C   0  0  0  0  0  0  0  0  0  0  0  0
    0.0995    0.0040   -0.0561 C   0  0  0  0  0  0  0  0  0  0  0  0
    1.1549   -0.8315    0.3289 C   0  0  0  0  0  0  0  0  0  0  0  0
    2.2823   -0.8992   -0.4520 C   0  0  0  0  0  0  0  0  0  0  0  0
    2.3403   -0.1375   -1.6113 C   0  0  0  0  0  0  0  0  0  0  0  0
    3.5353   -0.1391   -2.5146 C   0  0  0  0  0  0  0  0  0  0  0  0
    4.1302    1.0653   -2.5524 F   0  0  0  0  0  0  0  0  0  0  0  0
    4.4633   -1.0381   -2.1387 F   0  0  0  0  0  0  0  0  0  0  0  0
    3.1942   -0.4190   -3.7880 F   0  0  0  0  0  0  0  0  0  0  0  0
    1.2387    0.6621   -1.9344 C   0  0  0  0  0  0  0  0  0  0  0  0
    0.1651    0.7203   -1.1875 N   0  0  0  0  0  0  0  0  0  0  0  0
   -1.1822    0.0981    2.1262 C   0  0  0  0  0  0  0  0  0  0  0  0
   -0.0130    0.0245    2.8065 F   0  0  0  0  0  0  0  0  0  0  0  0
   -2.3329    0.1686    2.8674 C   0  0  0  0  0  0  0  0  0  0  0  0
   -4.5178    0.4705    0.2816 H   0  0  0  0  0  0  0  0  0  0  0  0
   -2.3965    0.3608   -0.9895 H   0  0  0  0  0  0  0  0  0  0  0  0
    1.0731   -1.4170    1.2334 H   0  0  0  0  0  0  0  0  0  0  0  0
    3.1073   -1.5459   -0.1711 H   0  0  0  0  0  0  0  0  0  0  0  0
    1.2408    1.2763   -2.8407 H   0  0  0  0  0  0  0  0  0  0  0  0
   -2.3026    0.1279    3.9438 H   0  0  0  0  0  0  0  0  0  0  0  0
  1  2  1  0
  2  3  1  0
  3  4  2  0
  4  5  1  0
  5  6  1  0
  6  7  2  0
  7  8  1  0
  8  9  2  0
  9 10  1  0
 10 11  1  0
 10 12  1  0
 10 13  1  0
  9 14  1  0
 14 15  2  0
  5 16  2  0
 16 17  1  0
 16 18  1  0
 18  2  2  0
 15  6  1  0
  3 19  1  0
  4 20  1  0
  7 21  1  0
  8 22  1  0
 14 23  1  0
 18 24  1  0
M  END
$$$$

     RDKit          3D

 24 25  0  0  0  0  0  0  0  0999 V2000
    1.6702   -1.5286    4.9968 F   0  0  0  0  0  0  0  0  0  0  0  0
    1.2678   -1.1376    3.7804 C   0  0  0  0  0  0  0  0  0  0  0  0
   -0.0769   -0.8974    3.5647 C   0  0  0  0  0  0  0  0  0  0  0  0
   -0.4810   -0.5044    2.2928 C   0  0  0  0  0  0  0  0  0  0  0  0
    0.4366   -0.3585    1.2467 C   0  0  0  0  0  0  0  0  0  0  0  0
   -0.0330    0.0377   -0.1058 C   0  0  0  0  0  0  0  0  0  0  0  0
    0.5920   -0.4051   -1.2759 C   0  0  0  0  0  0  0  0  0  0  0  0
    0.1087    0.0068   -2.4938 C   0  0  0  0  0  0  0  0  0  0  0  0
   -1.0019    0.8403   -2.5284 C   0  0  0  0  0  0  0  0  0  0  0  0
   -1.5941    1.3488   -3.8071 C   0  0  0  0  0  0  0  0  0  0  0  0
   -1.5865    2.6905   -3.8540 F   0  0  0  0  0  0  0  0  0  0  0  0
   -0.9395    0.8969   -4.8894 F   0  0  0  0  0  0  0  0  0  0  0  0
   -2.8862    0.9861   -3.9346 F   0  0  0  0  0  0  0  0  0  0  0  0
   -1.5856    1.2200   -1.3151 C   0  0  0  0  0  0  0  0  0  0  0  0
   -1.1150    0.8295   -0.1579 N   0  0  0  0  0  0  0  0  0  0  0  0
    1.7759   -0.5989    1.5569 C   0  0  0  0  0  0  0  0  0  0  0  0
    2.7168   -0.4073    0.6014 F   0  0  0  0  0  0  0  0  0  0  0  0
    2.2202   -0.9919    2.7933 C   0  0  0  0  0  0  0  0  0  0  0  0
   -0.7928   -1.0206    4.3629 H   0  0  0  0  0  0  0  0  0  0  0  0
   -1.5202   -0.3008    2.1092 H   0  0  0  0  0  0  0  0  0  0  0  0
    1.4427   -1.0661   -1.2113 H   0  0  0  0  0  0  0  0  0  0  0  0
    0.5897   -0.3229   -3.4088 H   0  0  0  0  0  0  0  0  0  0  0  0
   -2.4746    1.8592   -1.2988 H   0  0  0  0  0  0  0  0  0  0  0  0
    3.2668   -1.1757    2.9759 H   0  0  0  0  0  0  0  0  0  0  0  0
  1  2  1  0
  2  3  1  0
  3  4  2  0
  4  5  1  0
  5  6  1  0
  6  7  2  0
  7  8  1  0
  8  9  2  0
  9 10  1  0
 10 11  1  0
 10 12  1  0
 10 13  1  0
  9 14  1  0
 14 15  2  0
  5 16  2  0
 16 17  1  0
 16 18  1  0
 18  2  2  0
 15  6  1  0
  3 19  1  0
  4 20  1  0
  7 21  1  0
  8 22  1  0
 14 23  1  0
 18 24  1  0
M  END
$$$$

     RDKit          3D

 24 25  0  0  0  0  0  0  0  0999 V2000
    4.5932   -1.8237   -2.3720 F   0  0  0  0  0  0  0  0  0  0  0  0
    3.4632   -1.3819   -1.8037 C   0  0  0  0  0  0  0  0  0  0  0  0
    2.7748   -2.2208   -0.9449 C   0  0  0  0  0  0  0  0  0  0  0  0
    1.6035   -1.7491   -0.3603 C   0  0  0  0  0  0  0  0  0  0  0  0
    1.1334   -0.4581   -0.6164 C   0  0  0  0  0  0  0  0  0  0  0  0
   -0.1046    0.0296    0.0376 C   0  0  0  0  0  0  0  0  0  0  0  0
   -0.2317    1.3399    0.5054 C   0  0  0  0  0  0  0  0  0  0  0  0
   -1.3977    1.7256    1.1181 C   0  0  0  0  0  0  0  0  0  0  0  0
   -2.4243    0.7991    1.2513 C   0  0  0  0  0  0  0  0  0  0  0  0
   -3.7339    1.1408    1.8939 C   0  0  0  0  0  0  0  0  0  0  0  0
   -4.0564    0.2714    2.8698 F   0  0  0  0  0  0  0  0  0  0  0  0
   -4.7470    1.0900    1.0091 F   0  0  0  0  0  0  0  0  0  0  0  0
   -3.7268    2.3734    2.4347 F   0  0  0  0  0  0  0  0  0  0  0  0
   -2.2193   -0.4928    0.7531 C   0  0  0  0  0  0  0  0  0  0  0  0
   -1.0993   -0.8574    0.1847 N   0  0  0  0  0  0  0  0  0  0  0  0
    1.8785    0.3168   -1.5057 C   0  0  0  0  0  0  0  0  0  0  0  0
    1.4263    1.5527   -1.8292 F   0  0  0  0  0  0  0  0  0  0  0  0
    3.0347   -0.1058   -2.1082 C   0  0  0  0  0  0  0  0  0  0  0  0
    3.1410   -3.2149   -0.7353 H   0  0  0  0  0  0  0  0  0  0  0  0
    1.0427   -2.3862    0.3021 H   0  0  0  0  0  0  0  0  0  0  0  0
    0.5899    2.0315    0.3865 H   0  0  0  0  0  0  0  0  0  0  0  0
   -1.5081    2.7383    1.4922 H   0  0  0  0  0  0  0  0  0  0  0  0
   -3.0065   -1.2527    0.8253 H   0  0  0  0  0  0  0  0  0  0  0  0
    3.5743    0.5342   -2.7880 H   0  0  0  0  0  0  0  0  0  0  0  0
  1  2  1  0
  2  3  1  0
  3  4  2  0
  4  5  1  0
  5  6  1  0
  6  7  2  0
  7  8  1  0
  8  9  2  0
  9 10  1  0
 10 11  1  0
 10 12  1  0
 10 13  1  0
  9 14  1  0
 14 15  2  0
  5 16  2  0
 16 17  1  0
 16 18  1  0
 18  2  2  0
 15  6  1  0
  3 19  1  0
  4 20  1  0
  7 21  1  0
  8 22  1  0
 14 23  1  0
 18 24  1  0
M  END
$$$$

     RDKit          3D

 24 25  0  0  0  0  0  0  0  0999 V2000
    1.9433    2.4700   -4.4924 F   0  0  0  0  0  0  0  0  0  0  0  0
    1.4876    1.8664   -3.3867 C   0  0  0  0  0  0  0  0  0  0  0  0
    1.1354    2.6446   -2.2981 C   0  0  0  0  0  0  0  0  0  0  0  0
    0.6666    2.0033   -1.1556 C   0  0  0  0  0  0  0  0  0  0  0  0
    0.5294    0.6131   -1.1046 C   0  0  0  0  0  0  0  0  0  0  0  0
   -0.0102   -0.0435    0.1103 C   0  0  0  0  0  0  0  0  0  0  0  0
   -0.9124   -1.1084    0.0351 C   0  0  0  0  0  0  0  0  0  0  0  0
   -1.4006   -1.6623    1.1897 C   0  0  0  0  0  0  0  0  0  0  0  0
   -0.9787   -1.1491    2.4101 C   0  0  0  0  0  0  0  0  0  0  0  0
   -1.4495   -1.7300    3.7070 C   0  0  0  0  0  0  0  0  0  0  0  0
   -0.6002   -2.6763    4.1609 F   0  0  0  0  0  0  0  0  0  0  0  0
   -2.6504   -2.3135    3.5898 F   0  0  0  0  0  0  0  0  0  0  0  0
   -1.5339   -0.8012    4.6758 F   0  0  0  0  0  0  0  0  0  0  0  0
   -0.0722   -0.0860    2.4026 C   0  0  0  0  0  0  0  0  0  0  0  0
    0.3842    0.4408    1.2921 N   0  0  0  0  0  0  0  0  0  0  0  0
    0.9206   -0.0985   -2.2387 C   0  0  0  0  0  0  0  0  0  0  0  0
    0.8622   -1.4523   -2.2058 F   0  0  0  0  0  0  0  0  0  0  0  0
    1.3967    0.4887   -3.3831 C   0  0  0  0  0  0  0  0  0  0  0  0
    1.2247    3.7209   -2.3385 H   0  0  0  0  0  0  0  0  0  0  0  0
    0.4080    2.5839   -0.2869 H   0  0  0  0  0  0  0  0  0  0  0  0
   -1.2221   -1.4719   -0.9321 H   0  0  0  0  0  0  0  0  0  0  0  0
   -2.1078   -2.4859    1.1473 H   0  0  0  0  0  0  0  0  0  0  0  0
    0.2893    0.3522    3.3371 H   0  0  0  0  0  0  0  0  0  0  0  0
    1.6900   -0.1049   -4.2353 H   0  0  0  0  0  0  0  0  0  0  0  0
  1  2  1  0
  2  3  1  0
  3  4  2  0
  4  5  1  0
  5  6  1  0
  6  7  2  0
  7  8  1  0
  8  9  2  0
  9 10  1  0
 10 11  1  0
 10 12  1  0
 10 13  1  0
  9 14  1  0
 14 15  2  0
  5 16  2  0
 16 17  1  0
 16 18  1  0
 18  2  2  0
 15  6  1  0
  3 19  1  0
  4 20  1  0
  7 21  1  0
  8 22  1  0
 14 23  1  0
 18 24  1  0
M  END
$$$$

     RDKit          3D

 24 25  0  0  0  0  0  0  0  0999 V2000
    0.7182    5.3739    0.8088 F   0  0  0  0  0  0  0  0  0  0  0  0
    0.5377    4.0603    0.6225 C   0  0  0  0  0  0  0  0  0  0  0  0
   -0.7499    3.5526    0.6417 C   0  0  0  0  0  0  0  0  0  0  0  0
   -0.9220    2.1852    0.4492 C   0  0  0  0  0  0  0  0  0  0  0  0
    0.1674    1.3410    0.2179 C   0  0  0  0  0  0  0  0  0  0  0  0
   -0.0406   -0.1094   -0.0121 C   0  0  0  0  0  0  0  0  0  0  0  0
    0.6809   -0.8163   -0.9786 C   0  0  0  0  0  0  0  0  0  0  0  0
    0.4546   -2.1599   -1.1389 C   0  0  0  0  0  0  0  0  0  0  0  0
   -0.4953   -2.7804   -0.3378 C   0  0  0  0  0  0  0  0  0  0  0  0
   -0.7769   -4.2489   -0.4271 C   0  0  0  0  0  0  0  0  0  0  0  0
   -0.1950   -4.8074   -1.5030 F   0  0  0  0  0  0  0  0  0  0  0  0
   -0.3283   -4.9043    0.6625 F   0  0  0  0  0  0  0  0  0  0  0  0
   -2.0949   -4.5055   -0.4944 F   0  0  0  0  0  0  0  0  0  0  0  0
   -1.1895   -1.9987    0.5913 C   0  0  0  0  0  0  0  0  0  0  0  0
   -0.9670   -0.7157    0.7376 N   0  0  0  0  0  0  0  0  0  0  0  0
    1.4316    1.9317    0.2226 C   0  0  0  0  0  0  0  0  0  0  0  0
    2.5181    1.1397    0.0500 F   0  0  0  0  0  0  0  0  0  0  0  0
    1.6515    3.2699    0.4219 C   0  0  0  0  0  0  0  0  0  0  0  0
   -1.5965    4.2036    0.8004 H   0  0  0  0  0  0  0  0  0  0  0  0
   -1.9140    1.7651    0.4749 H   0  0  0  0  0  0  0  0  0  0  0  0
    1.4023   -0.2914   -1.5862 H   0  0  0  0  0  0  0  0  0  0  0  0
    1.0105   -2.7227   -1.8818 H   0  0  0  0  0  0  0  0  0  0  0  0
   -1.9530   -2.4411    1.2378 H   0  0  0  0  0  0  0  0  0  0  0  0
    2.6502    3.6786    0.4206 H   0  0  0  0  0  0  0  0  0  0  0  0
  1  2  1  0
  2  3  1  0
  3  4  2  0
  4  5  1  0
  5  6  1  0
  6  7  2  0
  7  8  1  0
  8  9  2  0
  9 10  1  0
 10 11  1  0
 10 12  1  0
 10 13  1  0
  9 14  1  0
 14 15  2  0
  5 16  2  0
 16 17  1  0
 16 18  1  0
 18  2  2  0
 15  6  1  0
  3 19  1  0
  4 20  1  0
  7 21  1  0
  8 22  1  0
 14 23  1  0
 18 24  1  0
M  END
$$$$

     RDKit          3D

 24 25  0  0  0  0  0  0  0  0999 V2000
   -1.9829    3.9622    3.2297 F   0  0  0  0  0  0  0  0  0  0  0  0
   -1.4847    2.9994    2.4437 C   0  0  0  0  0  0  0  0  0  0  0  0
   -1.8323    2.9797    1.1059 C   0  0  0  0  0  0  0  0  0  0  0  0
   -1.3081    1.9720    0.3028 C   0  0  0  0  0  0  0  0  0  0  0  0
   -0.4537    0.9961    0.8241 C   0  0  0  0  0  0  0  0  0  0  0  0
    0.0725   -0.0742   -0.0592 C   0  0  0  0  0  0  0  0  0  0  0  0
    0.2374   -1.3922    0.3764 C   0  0  0  0  0  0  0  0  0  0  0  0
    0.7086   -2.3375   -0.5017 C   0  0  0  0  0  0  0  0  0  0  0  0
    1.0029   -1.9570   -1.8050 C   0  0  0  0  0  0  0  0  0  0  0  0
    1.4949   -2.9286   -2.8339 C   0  0  0  0  0  0  0  0  0  0  0  0
    2.5811   -2.4709   -3.4718 F   0  0  0  0  0  0  0  0  0  0  0  0
    0.5689   -3.1493   -3.7930 F   0  0  0  0  0  0  0  0  0  0  0  0
    1.8009   -4.1246   -2.2990 F   0  0  0  0  0  0  0  0  0  0  0  0
    0.8171   -0.6170   -2.1626 C   0  0  0  0  0  0  0  0  0  0  0  0
    0.3605    0.2759   -1.3217 N   0  0  0  0  0  0  0  0  0  0  0  0
   -0.1408    1.0986    2.1789 C   0  0  0  0  0  0  0  0  0  0  0  0
    0.7232    0.2088    2.7209 F   0  0  0  0  0  0  0  0  0  0  0  0
   -0.6382    2.0695    3.0093 C   0  0  0  0  0  0  0  0  0  0  0  0
   -2.4963    3.7272    0.6993 H   0  0  0  0  0  0  0  0  0  0  0  0
   -1.5553    1.9434   -0.7415 H   0  0  0  0  0  0  0  0  0  0  0  0
   -0.0074   -1.6513    1.3957 H   0  0  0  0  0  0  0  0  0  0  0  0
    0.8432   -3.3640   -0.1770 H   0  0  0  0  0  0  0  0  0  0  0  0
    1.0564   -0.2673   -3.1721 H   0  0  0  0  0  0  0  0  0  0  0  0
   -0.3679    2.1010    4.0518 H   0  0  0  0  0  0  0  0  0  0  0  0
  1  2  1  0
  2  3  1  0
  3  4  2  0
  4  5  1  0
  5  6  1  0
  6  7  2  0
  7  8  1  0
  8  9  2  0
  9 10  1  0
 10 11  1  0
 10 12  1  0
 10 13  1  0
  9 14  1  0
 14 15  2  0
  5 16  2  0
 16 17  1  0
 16 18  1  0
 18  2  2  0
 15  6  1  0
  3 19  1  0
  4 20  1  0
  7 21  1  0
  8 22  1  0
 14 23  1  0
 18 24  1  0
M  END
$$$$

     RDKit          3D

 24 25  0  0  0  0  0  0  0  0999 V2000
    0.6086   -2.5468    4.8180 F   0  0  0  0  0  0  0  0  0  0  0  0
    0.4715   -1.9118    3.6472 C   0  0  0  0  0  0  0  0  0  0  0  0
   -0.5972   -1.0529    3.4737 C   0  0  0  0  0  0  0  0  0  0  0  0
   -0.7265   -0.4030    2.2508 C   0  0  0  0  0  0  0  0  0  0  0  0
    0.1854   -0.6112    1.2120 C   0  0  0  0  0  0  0  0  0  0  0  0
    0.0023    0.0707   -0.0930 C   0  0  0  0  0  0  0  0  0  0  0  0
    0.2899   -0.5553   -1.3098 C   0  0  0  0  0  0  0  0  0  0  0  0
    0.0861    0.1262   -2.4848 C   0  0  0  0  0  0  0  0  0  0  0  0
   -0.4088    1.4225   -2.4304 C   0  0  0  0  0  0  0  0  0  0  0  0
   -0.6517    2.2414   -3.6625 C   0  0  0  0  0  0  0  0  0  0  0  0
    0.1047    3.3530   -3.6758 F   0  0  0  0  0  0  0  0  0  0  0  0
   -0.3908    1.5568   -4.7909 F   0  0  0  0  0  0  0  0  0  0  0  0
   -1.9301    2.6653   -3.7401 F   0  0  0  0  0  0  0  0  0  0  0  0
   -0.6805    1.9748   -1.1736 C   0  0  0  0  0  0  0  0  0  0  0  0
   -0.4851    1.3168   -0.0572 N   0  0  0  0  0  0  0  0  0  0  0  0
    1.2433   -1.4797    1.4761 C   0  0  0  0  0  0  0  0  0  0  0  0
    2.1863   -1.6701    0.5223 F   0  0  0  0  0  0  0  0  0  0  0  0
    1.4105   -2.1444    2.6635 C   0  0  0  0  0  0  0  0  0  0  0  0
   -1.3134   -0.8971    4.2661 H   0  0  0  0  0  0  0  0  0  0  0  0
   -1.5410    0.2811    2.0999 H   0  0  0  0  0  0  0  0  0  0  0  0
    0.6660   -1.5665   -1.3067 H   0  0  0  0  0  0  0  0  0  0  0  0
    0.3036   -0.3470   -3.4368 H   0  0  0  0  0  0  0  0  0  0  0  0
   -1.0744    2.9913   -1.0825 H   0  0  0  0  0  0  0  0  0  0  0  0
    2.2414   -2.8142    2.8143 H   0  0  0  0  0  0  0  0  0  0  0  0
  1  2  1  0
  2  3  1  0
  3  4  2  0
  4  5  1  0
  5  6  1  0
  6  7  2  0
  7  8  1  0
  8  9  2  0
  9 10  1  0
 10 11  1  0
 10 12  1  0
 10 13  1  0
  9 14  1  0
 14 15  2  0
  5 16  2  0
 16 17  1  0
 16 18  1  0
 18  2  2  0
 15  6  1  0
  3 19  1  0
  4 20  1  0
  7 21  1  0
  8 22  1  0
 14 23  1  0
 18 24  1  0
M  END
$$$$

     RDKit          3D

 24 25  0  0  0  0  0  0  0  0999 V2000
    3.1169   -4.1598   -1.7473 F   0  0  0  0  0  0  0  0  0  0  0  0
    2.3560   -3.1511   -1.3012 C   0  0  0  0  0  0  0  0  0  0  0  0
    2.9694   -1.9809   -0.8900 C   0  0  0  0  0  0  0  0  0  0  0  0
    2.1669   -0.9395   -0.4343 C   0  0  0  0  0  0  0  0  0  0  0  0
    0.7747   -1.0517   -0.4071 C   0  0  0  0  0  0  0  0  0  0  0  0
   -0.0600    0.0822    0.0566 C   0  0  0  0  0  0  0  0  0  0  0  0
   -1.2404    0.4455   -0.5960 C   0  0  0  0  0  0  0  0  0  0  0  0
   -1.9686    1.5098   -0.1274 C   0  0  0  0  0  0  0  0  0  0  0  0
   -1.5033    2.2038    0.9827 C   0  0  0  0  0  0  0  0  0  0  0  0
   -2.2346    3.3766    1.5632 C   0  0  0  0  0  0  0  0  0  0  0  0
   -2.5060    3.2000    2.8671 F   0  0  0  0  0  0  0  0  0  0  0  0
   -1.5032    4.5082    1.4944 F   0  0  0  0  0  0  0  0  0  0  0  0
   -3.3970    3.6131    0.9288 F   0  0  0  0  0  0  0  0  0  0  0  0
   -0.3068    1.7843    1.5729 C   0  0  0  0  0  0  0  0  0  0  0  0
    0.3821    0.7640    1.1196 N   0  0  0  0  0  0  0  0  0  0  0  0
    0.2372   -2.2682   -0.8249 C   0  0  0  0  0  0  0  0  0  0  0  0
   -1.1054   -2.4421   -0.7612 F   0  0  0  0  0  0  0  0  0  0  0  0
    0.9871   -3.3266   -1.2700 C   0  0  0  0  0  0  0  0  0  0  0  0
    4.0438   -1.8803   -0.9216 H   0  0  0  0  0  0  0  0  0  0  0  0
    2.6254   -0.0292   -0.0905 H   0  0  0  0  0  0  0  0  0  0  0  0
   -1.5648   -0.1164   -1.4608 H   0  0  0  0  0  0  0  0  0  0  0  0
   -2.8879    1.8013   -0.6245 H   0  0  0  0  0  0  0  0  0  0  0  0
    0.0979    2.3060    2.4454 H   0  0  0  0  0  0  0  0  0  0  0  0
    0.5202   -4.2489   -1.5740 H   0  0  0  0  0  0  0  0  0  0  0  0
  1  2  1  0
  2  3  1  0
  3  4  2  0
  4  5  1  0
  5  6  1  0
  6  7  2  0
  7  8  1  0
  8  9  2  0
  9 10  1  0
 10 11  1  0
 10 12  1  0
 10 13  1  0
  9 14  1  0
 14 15  2  0
  5 16  2  0
 16 17  1  0
 16 18  1  0
 18  2  2  0
 15  6  1  0
  3 19  1  0
  4 20  1  0
  7 21  1  0
  8 22  1  0
 14 23  1  0
 18 24  1  0
M  END
$$$$
