
     RDKit          3D

 21 22  0  0  0  0  0  0  0  0999 V2000
   -3.0797   -0.8980   -1.3722 C   0  0  0  0  0  0  0  0  0  0  0  0
   -2.2613   -1.8728   -0.8061 C   0  0  0  0  0  0  0  0  0  0  0  0
   -1.0305   -1.5293   -0.2563 C   0  0  0  0  0  0  0  0  0  0  0  0
   -0.5947   -0.2003   -0.2622 C   0  0  0  0  0  0  0  0  0  0  0  0
    0.7352    0.1347    0.3354 C   0  0  0  0  0  0  0  0  0  0  0  0
    1.1256    1.4614    0.5725 C   0  0  0  0  0  0  0  0  0  0  0  0
    2.3779    1.7050    1.1093 C   0  0  0  0  0  0  0  0  0  0  0  0
    3.2152    0.6392    1.4062 C   0  0  0  0  0  0  0  0  0  0  0  0
    2.7381   -0.6459    1.1505 C   0  0  0  0  0  0  0  0  0  0  0  0
    1.5394   -0.8964    0.6401 N   0  0  0  0  0  0  0  0  0  0  0  0
   -1.4240    0.7720   -0.8423 C   0  0  0  0  0  0  0  0  0  0  0  0
   -2.6537    0.4212   -1.3874 C   0  0  0  0  0  0  0  0  0  0  0  0
   -4.0331   -1.1693   -1.7979 H   0  0  0  0  0  0  0  0  0  0  0  0
   -2.5833   -2.9052   -0.7896 H   0  0  0  0  0  0  0  0  0  0  0  0
   -0.3956   -2.2892    0.1725 H   0  0  0  0  0  0  0  0  0  0  0  0
    0.4633    2.2801    0.3404 H   0  0  0  0  0  0  0  0  0  0  0  0
    2.6873    2.7167    1.3017 H   0  0  0  0  0  0  0  0  0  0  0  0
    4.1978    0.7870    1.8168 H   0  0  0  0  0  0  0  0  0  0  0  0
    3.3542   -1.5066    1.3710 H   0  0  0  0  0  0  0  0  0  0  0  0
   -1.1070    1.8045   -0.8754 H   0  0  0  0  0  0  0  0  0  0  0  0
   -3.2711    1.1912   -1.8273 H   0  0  0  0  0  0  0  0  0  0  0  0
  1  2  2  0
  2  3  1  0
  3  4  2  0
  4  5  1  0
  5  6  2  0
  6  7  1  0
  7  8  2  0
  8  9  1  0
  9 10  2  0
  4 11  1  0
 11 12  2  0
 12  1  1  0
 10  5  1  0
  1 13  1  0
  2 14  1  0
  3 15  1  0
  6 16  1  0
  7 17  1  0
  8 18  1  0
  9 19  1  0
 11 20  1  0
 12 21  1  0
M  END
$$$$

     RDKit          3D

 21 22  0  0  0  0  0  0  0  0999 V2000
   -2.3056    2.5266   -0.6476 C   0  0  0  0  0  0  0  0  0  0  0  0
   -2.7453    1.2138   -0.4925 C   0  0  0  0  0  0  0  0  0  0  0  0
   -1.8390    0.1942   -0.2218 C   0  0  0  0  0  0  0  0  0  0  0  0
   -0.4745    0.4720   -0.1125 C   0  0  0  0  0  0  0  0  0  0  0  0
    0.4777   -0.6393    0.1779 C   0  0  0  0  0  0  0  0  0  0  0  0
    1.8334   -0.5496   -0.1680 C   0  0  0  0  0  0  0  0  0  0  0  0
    2.6701   -1.6081    0.1380 C   0  0  0  0  0  0  0  0  0  0  0  0
    2.1539   -2.7245    0.7802 C   0  0  0  0  0  0  0  0  0  0  0  0
    0.7916   -2.7252    1.0798 C   0  0  0  0  0  0  0  0  0  0  0  0
   -0.0258   -1.7241    0.7800 N   0  0  0  0  0  0  0  0  0  0  0  0
   -0.0410    1.7965   -0.2648 C   0  0  0  0  0  0  0  0  0  0  0  0
   -0.9523    2.8106   -0.5336 C   0  0  0  0  0  0  0  0  0  0  0  0
   -3.0145    3.3141   -0.8551 H   0  0  0  0  0  0  0  0  0  0  0  0
   -3.7990    0.9810   -0.5812 H   0  0  0  0  0  0  0  0  0  0  0  0
   -2.1819   -0.8217   -0.0895 H   0  0  0  0  0  0  0  0  0  0  0  0
    2.2089    0.3236   -0.6773 H   0  0  0  0  0  0  0  0  0  0  0  0
    3.7136   -1.5586   -0.1241 H   0  0  0  0  0  0  0  0  0  0  0  0
    2.7715   -3.5663    1.0394 H   0  0  0  0  0  0  0  0  0  0  0  0
    0.3422   -3.5720    1.5811 H   0  0  0  0  0  0  0  0  0  0  0  0
    1.0069    2.0346   -0.1560 H   0  0  0  0  0  0  0  0  0  0  0  0
   -0.5910    3.8224   -0.6523 H   0  0  0  0  0  0  0  0  0  0  0  0
  1  2  2  0
  2  3  1  0
  3  4  2  0
  4  5  1  0
  5  6  2  0
  6  7  1  0
  7  8  2  0
  8  9  1  0
  9 10  2  0
  4 11  1  0
 11 12  2  0
 12  1  1  0
 10  5  1  0
  1 13  1  0
  2 14  1  0
  3 15  1  0
  6 16  1  0
  7 17  1  0
  8 18  1  0
  9 19  1  0
 11 20  1  0
 12 21  1  0
M  END
$$$$

     RDKit          3D

 21 22  0  0  0  0  0  0  0  0999 V2000
    1.8881   -0.7952    2.8172 C   0  0  0  0  0  0  0  0  0  0  0  0
    2.4039   -1.0408    1.5463 C   0  0  0  0  0  0  0  0  0  0  0  0
    1.6711   -0.7123    0.4108 C   0  0  0  0  0  0  0  0  0  0  0  0
    0.3987   -0.1486    0.5293 C   0  0  0  0  0  0  0  0  0  0  0  0
   -0.3712    0.1871   -0.7048 C   0  0  0  0  0  0  0  0  0  0  0  0
   -1.7683    0.3086   -0.6845 C   0  0  0  0  0  0  0  0  0  0  0  0
   -2.4275    0.6285   -1.8578 C   0  0  0  0  0  0  0  0  0  0  0  0
   -1.6980    0.8224   -3.0209 C   0  0  0  0  0  0  0  0  0  0  0  0
   -0.3137    0.6723   -2.9456 C   0  0  0  0  0  0  0  0  0  0  0  0
    0.3327    0.3579   -1.8305 N   0  0  0  0  0  0  0  0  0  0  0  0
   -0.1117    0.0967    1.8123 C   0  0  0  0  0  0  0  0  0  0  0  0
    0.6318   -0.2213    2.9424 C   0  0  0  0  0  0  0  0  0  0  0  0
    2.4632   -1.0501    3.6944 H   0  0  0  0  0  0  0  0  0  0  0  0
    3.3839   -1.4864    1.4349 H   0  0  0  0  0  0  0  0  0  0  0  0
    2.0799   -0.8926   -0.5730 H   0  0  0  0  0  0  0  0  0  0  0  0
   -2.3184    0.1368    0.2256 H   0  0  0  0  0  0  0  0  0  0  0  0
   -3.5003    0.7216   -1.8593 H   0  0  0  0  0  0  0  0  0  0  0  0
   -2.1712    1.0741   -3.9541 H   0  0  0  0  0  0  0  0  0  0  0  0
    0.2951    0.8042   -3.8294 H   0  0  0  0  0  0  0  0  0  0  0  0
   -1.0840    0.5500    1.9282 H   0  0  0  0  0  0  0  0  0  0  0  0
    0.2159   -0.0130    3.9185 H   0  0  0  0  0  0  0  0  0  0  0  0
  1  2  2  0
  2  3  1  0
  3  4  2  0
  4  5  1  0
  5  6  2  0
  6  7  1  0
  7  8  2  0
  8  9  1  0
  9 10  2  0
  4 11  1  0
 11 12  2  0
 12  1  1  0
 10  5  1  0
  1 13  1  0
  2 14  1  0
  3 15  1  0
  6 16  1  0
  7 17  1  0
  8 18  1  0
  9 19  1  0
 11 20  1  0
 12 21  1  0
M  END
$$$$

     RDKit          3D

 21 22  0  0  0  0  0  0  0  0999 V2000
   -1.0891   -0.0288   -3.3142 C   0  0  0  0  0  0  0  0  0  0  0  0
   -1.3575   -1.1149   -2.4846 C   0  0  0  0  0  0  0  0  0  0  0  0
   -0.9340   -1.1125   -1.1607 C   0  0  0  0  0  0  0  0  0  0  0  0
   -0.2230   -0.0245   -0.6424 C   0  0  0  0  0  0  0  0  0  0  0  0
    0.2179   -0.0557    0.7865 C   0  0  0  0  0  0  0  0  0  0  0  0
    1.0969    0.9028    1.3140 C   0  0  0  0  0  0  0  0  0  0  0  0
    1.4571    0.8172    2.6484 C   0  0  0  0  0  0  0  0  0  0  0  0
    0.9446   -0.2058    3.4330 C   0  0  0  0  0  0  0  0  0  0  0  0
    0.0845   -1.1180    2.8218 C   0  0  0  0  0  0  0  0  0  0  0  0
   -0.2677   -1.0510    1.5450 N   0  0  0  0  0  0  0  0  0  0  0  0
    0.0429    1.0626   -1.4878 C   0  0  0  0  0  0  0  0  0  0  0  0
   -0.3891    1.0556   -2.8083 C   0  0  0  0  0  0  0  0  0  0  0  0
   -1.4256   -0.0321   -4.3387 H   0  0  0  0  0  0  0  0  0  0  0  0
   -1.9053   -1.9655   -2.8688 H   0  0  0  0  0  0  0  0  0  0  0  0
   -1.1488   -1.9542   -0.5218 H   0  0  0  0  0  0  0  0  0  0  0  0
    1.4997    1.6863    0.6918 H   0  0  0  0  0  0  0  0  0  0  0  0
    2.1258    1.5473    3.0688 H   0  0  0  0  0  0  0  0  0  0  0  0
    1.2007   -0.3054    4.4731 H   0  0  0  0  0  0  0  0  0  0  0  0
   -0.3349   -1.9351    3.3908 H   0  0  0  0  0  0  0  0  0  0  0  0
    0.5784    1.9223   -1.1124 H   0  0  0  0  0  0  0  0  0  0  0  0
   -0.1734    1.9096   -3.4337 H   0  0  0  0  0  0  0  0  0  0  0  0
  1  2  2  0
  2  3  1  0
  3  4  2  0
  4  5  1  0
  5  6  2  0
  6  7  1  0
  7  8  2  0
  8  9  1  0
  9 10  2  0
  4 11  1  0
 11 12  2  0
 12  1  1  0
 10  5  1  0
  1 13  1  0
  2 14  1  0
  3 15  1  0
  6 16  1  0
  7 17  1  0
  8 18  1  0
  9 19  1  0
 11 20  1  0
 12 21  1  0
M  END
$$$$

     RDKit          3D

 21 22  0  0  0  0  0  0  0  0999 V2000
   -1.2363    2.8214    1.6410 C   0  0  0  0  0  0  0  0  0  0  0  0
   -0.8260    1.7111    2.3762 C   0  0  0  0  0  0  0  0  0  0  0  0
   -0.3375    0.5774    1.7331 C   0  0  0  0  0  0  0  0  0  0  0  0
   -0.2488    0.5344    0.3385 C   0  0  0  0  0  0  0  0  0  0  0  0
    0.2877   -0.6975   -0.3189 C   0  0  0  0  0  0  0  0  0  0  0  0
    0.5917   -0.7334   -1.6878 C   0  0  0  0  0  0  0  0  0  0  0  0
    1.0826   -1.9080   -2.2328 C   0  0  0  0  0  0  0  0  0  0  0  0
    1.2634   -3.0193   -1.4209 C   0  0  0  0  0  0  0  0  0  0  0  0
    0.9369   -2.8904   -0.0705 C   0  0  0  0  0  0  0  0  0  0  0  0
    0.4717   -1.7719    0.4664 N   0  0  0  0  0  0  0  0  0  0  0  0
   -0.6728    1.6555   -0.3912 C   0  0  0  0  0  0  0  0  0  0  0  0
   -1.1596    2.7839    0.2580 C   0  0  0  0  0  0  0  0  0  0  0  0
   -1.6118    3.6999    2.1431 H   0  0  0  0  0  0  0  0  0  0  0  0
   -0.8828    1.7282    3.4559 H   0  0  0  0  0  0  0  0  0  0  0  0
   -0.0307   -0.2850    2.3063 H   0  0  0  0  0  0  0  0  0  0  0  0
    0.4523    0.1382   -2.3086 H   0  0  0  0  0  0  0  0  0  0  0  0
    1.3238   -1.9475   -3.2801 H   0  0  0  0  0  0  0  0  0  0  0  0
    1.6415   -3.9497   -1.8063 H   0  0  0  0  0  0  0  0  0  0  0  0
    1.0614   -3.7289    0.6005 H   0  0  0  0  0  0  0  0  0  0  0  0
   -0.6262    1.6518   -1.4698 H   0  0  0  0  0  0  0  0  0  0  0  0
   -1.4804    3.6298   -0.3322 H   0  0  0  0  0  0  0  0  0  0  0  0
  1  2  2  0
  2  3  1  0
  3  4  2  0
  4  5  1  0
  5  6  2  0
  6  7  1  0
  7  8  2  0
  8  9  1  0
  9 10  2  0
  4 11  1  0
 11 12  2  0
 12  1  1  0
 10  5  1  0
  1 13  1  0
  2 14  1  0
  3 15  1  0
  6 16  1  0
  7 17  1  0
  8 18  1  0
  9 19  1  0
 11 20  1  0
 12 21  1  0
M  END
$$$$

     RDKit          3D

 21 22  0  0  0  0  0  0  0  0999 V2000
   -1.3016   -1.8687   -2.6359 C   0  0  0  0  0  0  0  0  0  0  0  0
    0.0683   -1.6204   -2.5762 C   0  0  0  0  0  0  0  0  0  0  0  0
    0.6073   -0.8896   -1.5233 C   0  0  0  0  0  0  0  0  0  0  0  0
   -0.2199   -0.3798   -0.5193 C   0  0  0  0  0  0  0  0  0  0  0  0
    0.3828    0.4131    0.5936 C   0  0  0  0  0  0  0  0  0  0  0  0
   -0.4007    1.2473    1.4037 C   0  0  0  0  0  0  0  0  0  0  0  0
    0.2096    1.9465    2.4299 C   0  0  0  0  0  0  0  0  0  0  0  0
    1.5745    1.8077    2.6370 C   0  0  0  0  0  0  0  0  0  0  0  0
    2.2752    0.9651    1.7734 C   0  0  0  0  0  0  0  0  0  0  0  0
    1.7051    0.2963    0.7807 N   0  0  0  0  0  0  0  0  0  0  0  0
   -1.5967   -0.6420   -0.5842 C   0  0  0  0  0  0  0  0  0  0  0  0
   -2.1264   -1.3800   -1.6345 C   0  0  0  0  0  0  0  0  0  0  0  0
   -1.7151   -2.4380   -3.4536 H   0  0  0  0  0  0  0  0  0  0  0  0
    0.7215   -1.9989   -3.3519 H   0  0  0  0  0  0  0  0  0  0  0  0
    1.6712   -0.7089   -1.4729 H   0  0  0  0  0  0  0  0  0  0  0  0
   -1.4572    1.3553    1.2170 H   0  0  0  0  0  0  0  0  0  0  0  0
   -0.3796    2.5912    3.0588 H   0  0  0  0  0  0  0  0  0  0  0  0
    2.0849    2.3284    3.4283 H   0  0  0  0  0  0  0  0  0  0  0  0
    3.3417    0.8304    1.8912 H   0  0  0  0  0  0  0  0  0  0  0  0
   -2.2545   -0.2850    0.1955 H   0  0  0  0  0  0  0  0  0  0  0  0
   -3.1906   -1.5699   -1.6574 H   0  0  0  0  0  0  0  0  0  0  0  0
  1  2  2  0
  2  3  1  0
  3  4  2  0
  4  5  1  0
  5  6  2  0
  6  7  1  0
  7  8  2  0
  8  9  1  0
  9 10  2  0
  4 11  1  0
 11 12  2  0
 12  1  1  0
 10  5  1  0
  1 13  1  0
  2 14  1  0
  3 15  1  0
  6 16  1  0
  7 17  1  0
  8 18  1  0
  9 19  1  0
 11 20  1  0
 12 21  1  0
M  END
$$$$

     RDKit          3D

 21 22  0  0  0  0  0  0  0  0999 V2000
   -2.7177    1.9974    0.8782 C   0  0  0  0  0  0  0  0  0  0  0  0
   -2.1575    2.0666   -0.3924 C   0  0  0  0  0  0  0  0  0  0  0  0
   -1.0837    1.2618   -0.7344 C   0  0  0  0  0  0  0  0  0  0  0  0
   -0.5431    0.3585    0.1948 C   0  0  0  0  0  0  0  0  0  0  0  0
    0.6161   -0.5226   -0.1408 C   0  0  0  0  0  0  0  0  0  0  0  0
    1.4759   -0.2208   -1.2054 C   0  0  0  0  0  0  0  0  0  0  0  0
    2.5330   -1.0721   -1.4736 C   0  0  0  0  0  0  0  0  0  0  0  0
    2.7181   -2.2006   -0.6885 C   0  0  0  0  0  0  0  0  0  0  0  0
    1.8162   -2.4164    0.3542 C   0  0  0  0  0  0  0  0  0  0  0  0
    0.8017   -1.6036    0.6287 N   0  0  0  0  0  0  0  0  0  0  0  0
   -1.1184    0.2835    1.4658 C   0  0  0  0  0  0  0  0  0  0  0  0
   -2.1966    1.1013    1.8046 C   0  0  0  0  0  0  0  0  0  0  0  0
   -3.5490    2.6331    1.1422 H   0  0  0  0  0  0  0  0  0  0  0  0
   -2.5586    2.7500   -1.1288 H   0  0  0  0  0  0  0  0  0  0  0  0
   -0.6578    1.3282   -1.7253 H   0  0  0  0  0  0  0  0  0  0  0  0
    1.3192    0.6649   -1.7987 H   0  0  0  0  0  0  0  0  0  0  0  0
    3.2054   -0.8498   -2.2848 H   0  0  0  0  0  0  0  0  0  0  0  0
    3.5236   -2.8908   -0.8675 H   0  0  0  0  0  0  0  0  0  0  0  0
    1.9202   -3.2830    0.9908 H   0  0  0  0  0  0  0  0  0  0  0  0
   -0.7255   -0.4206    2.1837 H   0  0  0  0  0  0  0  0  0  0  0  0
   -2.6216    1.0350    2.7970 H   0  0  0  0  0  0  0  0  0  0  0  0
  1  2  2  0
  2  3  1  0
  3  4  2  0
  4  5  1  0
  5  6  2  0
  6  7  1  0
  7  8  2  0
  8  9  1  0
  9 10  2  0
  4 11  1  0
 11 12  2  0
 12  1  1  0
 10  5  1  0
  1 13  1  0
  2 14  1  0
  3 15  1  0
  6 16  1  0
  7 17  1  0
  8 18  1  0
  9 19  1  0
 11 20  1  0
 12 21  1  0
M  END
$$$$

     RDKit          3D

 21 22  0  0  0  0  0  0  0  0999 V2000
    0.6473   -3.3712    0.6197 C   0  0  0  0  0  0  0  0  0  0  0  0
    1.6709   -2.4322    0.7292 C   0  0  0  0  0  0  0  0  0  0  0  0
    1.4244   -1.0866    0.4808 C   0  0  0  0  0  0  0  0  0  0  0  0
    0.1435   -0.6535    0.1185 C   0  0  0  0  0  0  0  0  0  0  0  0
   -0.0831    0.8029   -0.1343 C   0  0  0  0  0  0  0  0  0  0  0  0
   -1.3668    1.3322   -0.3407 C   0  0  0  0  0  0  0  0  0  0  0  0
   -1.4995    2.6884   -0.5818 C   0  0  0  0  0  0  0  0  0  0  0  0
   -0.3685    3.4923   -0.6119 C   0  0  0  0  0  0  0  0  0  0  0  0
    0.8656    2.8813   -0.3869 C   0  0  0  0  0  0  0  0  0  0  0  0
    1.0094    1.5854   -0.1475 N   0  0  0  0  0  0  0  0  0  0  0  0
   -0.8774   -1.6098    0.0009 C   0  0  0  0  0  0  0  0  0  0  0  0
   -0.6226   -2.9526    0.2514 C   0  0  0  0  0  0  0  0  0  0  0  0
    0.8428   -4.4138    0.8146 H   0  0  0  0  0  0  0  0  0  0  0  0
    2.6661   -2.7491    1.0136 H   0  0  0  0  0  0  0  0  0  0  0  0
    2.2234   -0.3655    0.5592 H   0  0  0  0  0  0  0  0  0  0  0  0
   -2.2377    0.6978   -0.3111 H   0  0  0  0  0  0  0  0  0  0  0  0
   -2.4770    3.1087   -0.7395 H   0  0  0  0  0  0  0  0  0  0  0  0
   -0.4294    4.5490   -0.8026 H   0  0  0  0  0  0  0  0  0  0  0  0
    1.7719    3.4716   -0.3988 H   0  0  0  0  0  0  0  0  0  0  0  0
   -1.8747   -1.3090   -0.2869 H   0  0  0  0  0  0  0  0  0  0  0  0
   -1.4284   -3.6662    0.1540 H   0  0  0  0  0  0  0  0  0  0  0  0
  1  2  2  0
  2  3  1  0
  3  4  2  0
  4  5  1  0
  5  6  2  0
  6  7  1  0
  7  8  2  0
  8  9  1  0
  9 10  2  0
  4 11  1  0
 11 12  2  0
 12  1  1  0
 10  5  1  0
  1 13  1  0
  2 14  1  0
  3 15  1  0
  6 16  1  0
  7 17  1  0
  8 18  1  0
  9 19  1  0
 11 20  1  0
 12 21  1  0
M  END
$$$$

     RDKit          3D

 21 22  0  0  0  0  0  0  0  0999 V2000
    0.7780   -1.7214   -2.9229 C   0  0  0  0  0  0  0  0  0  0  0  0
    1.6859   -0.8008   -2.4039 C   0  0  0  0  0  0  0  0  0  0  0  0
    1.3950   -0.1098   -1.2322 C   0  0  0  0  0  0  0  0  0  0  0  0
    0.1871   -0.3265   -0.5649 C   0  0  0  0  0  0  0  0  0  0  0  0
   -0.0995    0.4185    0.6951 C   0  0  0  0  0  0  0  0  0  0  0  0
   -1.4148    0.6480    1.1225 C   0  0  0  0  0  0  0  0  0  0  0  0
   -1.6188    1.3384    2.3041 C   0  0  0  0  0  0  0  0  0  0  0  0
   -0.5260    1.7783    3.0371 C   0  0  0  0  0  0  0  0  0  0  0  0
    0.7446    1.5077    2.5289 C   0  0  0  0  0  0  0  0  0  0  0  0
    0.9573    0.8544    1.3929 N   0  0  0  0  0  0  0  0  0  0  0  0
   -0.7212   -1.2516   -1.0957 C   0  0  0  0  0  0  0  0  0  0  0  0
   -0.4228   -1.9415   -2.2643 C   0  0  0  0  0  0  0  0  0  0  0  0
    1.0095   -2.2585   -3.8303 H   0  0  0  0  0  0  0  0  0  0  0  0
    2.6236   -0.6187   -2.9134 H   0  0  0  0  0  0  0  0  0  0  0  0
    2.1003    0.5990   -0.8232 H   0  0  0  0  0  0  0  0  0  0  0  0
   -2.2492    0.3113    0.5266 H   0  0  0  0  0  0  0  0  0  0  0  0
   -2.6224    1.5248    2.6491 H   0  0  0  0  0  0  0  0  0  0  0  0
   -0.6424    2.3132    3.9639 H   0  0  0  0  0  0  0  0  0  0  0  0
    1.6266    1.8333    3.0646 H   0  0  0  0  0  0  0  0  0  0  0  0
   -1.6527   -1.4438   -0.5827 H   0  0  0  0  0  0  0  0  0  0  0  0
   -1.1380   -2.6541   -2.6511 H   0  0  0  0  0  0  0  0  0  0  0  0
  1  2  2  0
  2  3  1  0
  3  4  2  0
  4  5  1  0
  5  6  2  0
  6  7  1  0
  7  8  2  0
  8  9  1  0
  9 10  2  0
  4 11  1  0
 11 12  2  0
 12  1  1  0
 10  5  1  0
  1 13  1  0
  2 14  1  0
  3 15  1  0
  6 16  1  0
  7 17  1  0
  8 18  1  0
  9 19  1  0
 11 20  1  0
 12 21  1  0
M  END
$$$$

     RDKit          3D

 21 22  0  0  0  0  0  0  0  0999 V2000
   -1.9700   -2.3163    1.7081 C   0  0  0  0  0  0  0  0  0  0  0  0
   -2.5133   -1.0917    1.3254 C   0  0  0  0  0  0  0  0  0  0  0  0
   -1.7391   -0.1583    0.6462 C   0  0  0  0  0  0  0  0  0  0  0  0
   -0.4033   -0.4345    0.3327 C   0  0  0  0  0  0  0  0  0  0  0  0
    0.4033    0.5906   -0.3995 C   0  0  0  0  0  0  0  0  0  0  0  0
    1.6842    0.3077   -0.8989 C   0  0  0  0  0  0  0  0  0  0  0  0
    2.3822    1.3082   -1.5536 C   0  0  0  0  0  0  0  0  0  0  0  0
    1.8019    2.5594   -1.7074 C   0  0  0  0  0  0  0  0  0  0  0  0
    0.5205    2.7460   -1.1866 C   0  0  0  0  0  0  0  0  0  0  0  0
   -0.1628    1.7986   -0.5590 N   0  0  0  0  0  0  0  0  0  0  0  0
    0.1347   -1.6680    0.7301 C   0  0  0  0  0  0  0  0  0  0  0  0
   -0.6445   -2.5948    1.4102 C   0  0  0  0  0  0  0  0  0  0  0  0
   -2.5759   -3.0379    2.2338 H   0  0  0  0  0  0  0  0  0  0  0  0
   -3.5450   -0.8620    1.5570 H   0  0  0  0  0  0  0  0  0  0  0  0
   -2.1656    0.7910    0.3605 H   0  0  0  0  0  0  0  0  0  0  0  0
    2.1208   -0.6720   -0.7796 H   0  0  0  0  0  0  0  0  0  0  0  0
    3.3650    1.1067   -1.9435 H   0  0  0  0  0  0  0  0  0  0  0  0
    2.3123    3.3644   -2.2064 H   0  0  0  0  0  0  0  0  0  0  0  0
    0.0297    3.7040   -1.2905 H   0  0  0  0  0  0  0  0  0  0  0  0
    1.1669   -1.9066    0.5147 H   0  0  0  0  0  0  0  0  0  0  0  0
   -0.2017   -3.5347    1.7061 H   0  0  0  0  0  0  0  0  0  0  0  0
  1  2  2  0
  2  3  1  0
  3  4  2  0
  4  5  1  0
  5  6  2  0
  6  7  1  0
  7  8  2  0
  8  9  1  0
  9 10  2  0
  4 11  1  0
 11 12  2  0
 12  1  1  0
 10  5  1  0
  1 13  1  0
  2 14  1  0
  3 15  1  0
  6 16  1  0
  7 17  1  0
  8 18  1  0
  9 19  1  0
 11 20  1  0
 12 21  1  0
M  END
$$$$

     RDKit          3D

 21 22  0  0  0  0  0  0  0  0999 V2000
    0.7109   -2.5877   -2.2266 C   0  0  0  0  0  0  0  0  0  0  0  0
    1.4670   -2.4434   -1.0662 C   0  0  0  0  0  0  0  0  0  0  0  0
    1.1968   -1.4131   -0.1726 C   0  0  0  0  0  0  0  0  0  0  0  0
    0.1612   -0.5063   -0.4233 C   0  0  0  0  0  0  0  0  0  0  0  0
   -0.1059    0.5836    0.5660 C   0  0  0  0  0  0  0  0  0  0  0  0
   -1.2397    1.4039    0.4681 C   0  0  0  0  0  0  0  0  0  0  0  0
   -1.4166    2.4110    1.4001 C   0  0  0  0  0  0  0  0  0  0  0  0
   -0.4857    2.5768    2.4169 C   0  0  0  0  0  0  0  0  0  0  0  0
    0.5995    1.6998    2.4489 C   0  0  0  0  0  0  0  0  0  0  0  0
    0.7876    0.7348    1.5584 N   0  0  0  0  0  0  0  0  0  0  0  0
   -0.5829   -0.6527   -1.6042 C   0  0  0  0  0  0  0  0  0  0  0  0
   -0.3115   -1.6886   -2.4885 C   0  0  0  0  0  0  0  0  0  0  0  0
    0.9210   -3.3923   -2.9144 H   0  0  0  0  0  0  0  0  0  0  0  0
    2.2678   -3.1399   -0.8537 H   0  0  0  0  0  0  0  0  0  0  0  0
    1.7900   -1.3005    0.7215 H   0  0  0  0  0  0  0  0  0  0  0  0
   -1.9654    1.2516   -0.3157 H   0  0  0  0  0  0  0  0  0  0  0  0
   -2.2749    3.0562    1.3303 H   0  0  0  0  0  0  0  0  0  0  0  0
   -0.5863    3.3521    3.1555 H   0  0  0  0  0  0  0  0  0  0  0  0
    1.3471    1.7905    3.2249 H   0  0  0  0  0  0  0  0  0  0  0  0
   -1.3749    0.0441   -1.8388 H   0  0  0  0  0  0  0  0  0  0  0  0
   -0.9050   -1.7800   -3.3867 H   0  0  0  0  0  0  0  0  0  0  0  0
  1  2  2  0
  2  3  1  0
  3  4  2  0
  4  5  1  0
  5  6  2  0
  6  7  1  0
  7  8  2  0
  8  9  1  0
  9 10  2  0
  4 11  1  0
 11 12  2  0
 12  1  1  0
 10  5  1  0
  1 13  1  0
  2 14  1  0
  3 15  1  0
  6 16  1  0
  7 17  1  0
  8 18  1  0
  9 19  1  0
 11 20  1  0
 12 21  1  0
M  END
$$$$

     RDKit          3D

 21 22  0  0  0  0  0  0  0  0999 V2000
    2.3732    1.6983   -1.8948 C   0  0  0  0  0  0  0  0  0  0  0  0
    2.5955    0.3669   -1.5519 C   0  0  0  0  0  0  0  0  0  0  0  0
    1.6709   -0.3232   -0.7758 C   0  0  0  0  0  0  0  0  0  0  0  0
    0.4998    0.3049   -0.3465 C   0  0  0  0  0  0  0  0  0  0  0  0
   -0.4896   -0.4558    0.4715 C   0  0  0  0  0  0  0  0  0  0  0  0
   -1.8513   -0.1216    0.4532 C   0  0  0  0  0  0  0  0  0  0  0  0
   -2.7267   -0.8530    1.2351 C   0  0  0  0  0  0  0  0  0  0  0  0
   -2.2422   -1.8911    2.0179 C   0  0  0  0  0  0  0  0  0  0  0  0
   -0.8711   -2.1488    1.9705 C   0  0  0  0  0  0  0  0  0  0  0  0
   -0.0209   -1.4672    1.2118 N   0  0  0  0  0  0  0  0  0  0  0  0
    0.2886    1.6473   -0.6857 C   0  0  0  0  0  0  0  0  0  0  0  0
    1.2190    2.3326   -1.4558 C   0  0  0  0  0  0  0  0  0  0  0  0
    3.0958    2.2317   -2.4933 H   0  0  0  0  0  0  0  0  0  0  0  0
    3.4923   -0.1365   -1.8909 H   0  0  0  0  0  0  0  0  0  0  0  0
    1.8511   -1.3509   -0.4965 H   0  0  0  0  0  0  0  0  0  0  0  0
   -2.2067    0.6856   -0.1674 H   0  0  0  0  0  0  0  0  0  0  0  0
   -3.7790   -0.6201    1.2228 H   0  0  0  0  0  0  0  0  0  0  0  0
   -2.8909   -2.4842    2.6391 H   0  0  0  0  0  0  0  0  0  0  0  0
   -0.4455   -2.9403    2.5713 H   0  0  0  0  0  0  0  0  0  0  0  0
   -0.5972    2.1565   -0.3319 H   0  0  0  0  0  0  0  0  0  0  0  0
    1.0347    3.3690   -1.7027 H   0  0  0  0  0  0  0  0  0  0  0  0
  1  2  2  0
  2  3  1  0
  3  4  2  0
  4  5  1  0
  5  6  2  0
  6  7  1  0
  7  8  2  0
  8  9  1  0
  9 10  2  0
  4 11  1  0
 11 12  2  0
 12  1  1  0
 10  5  1  0
  1 13  1  0
  2 14  1  0
  3 15  1  0
  6 16  1  0
  7 17  1  0
  8 18  1  0
  9 19  1  0
 11 20  1  0
 12 21  1  0
M  END
$$$$
