
     RDKit          3D

 24 25  0  0  0  0  0  0  0  0999 V2000
   -3.8323   -1.9264    0.8370 C   0  0  0  0  0  0  0  0  0  0  0  0
   -2.5302   -1.2414    0.5865 C   0  0  0  0  0  0  0  0  0  0  0  0
   -1.8921   -0.4424    1.5384 C   0  0  0  0  0  0  0  0  0  0  0  0
   -0.6840    0.1491    1.2527 C   0  0  0  0  0  0  0  0  0  0  0  0
   -0.1036   -0.0719    0.0009 C   0  0  0  0  0  0  0  0  0  0  0  0
    1.1992    0.5494   -0.3720 C   0  0  0  0  0  0  0  0  0  0  0  0
    1.2706    1.3643   -1.5048 C   0  0  0  0  0  0  0  0  0  0  0  0
    2.4601    1.9851   -1.8795 C   0  0  0  0  0  0  0  0  0  0  0  0
    3.5810    1.7703   -1.1004 C   0  0  0  0  0  0  0  0  0  0  0  0
    4.7431    2.3611   -1.4507 F   0  0  0  0  0  0  0  0  0  0  0  0
    3.5661    0.9608    0.0238 C   0  0  0  0  0  0  0  0  0  0  0  0
    2.3774    0.3629    0.3645 C   0  0  0  0  0  0  0  0  0  0  0  0
    2.3810   -0.6908    1.7668 Cl  0  0  0  0  0  0  0  0  0  0  0  0
   -0.7029   -0.8211   -0.9239 N   0  0  0  0  0  0  0  0  0  0  0  0
   -1.8599   -1.3903   -0.6387 C   0  0  0  0  0  0  0  0  0  0  0  0
   -3.6921   -3.0033    0.9009 H   0  0  0  0  0  0  0  0  0  0  0  0
   -4.2857   -1.5833    1.7694 H   0  0  0  0  0  0  0  0  0  0  0  0
   -4.5337   -1.7418    0.0237 H   0  0  0  0  0  0  0  0  0  0  0  0
   -2.3613   -0.2877    2.5004 H   0  0  0  0  0  0  0  0  0  0  0  0
   -0.1648    0.7743    1.9730 H   0  0  0  0  0  0  0  0  0  0  0  0
    0.3839    1.5038   -2.1026 H   0  0  0  0  0  0  0  0  0  0  0  0
    2.5156    2.6199   -2.7551 H   0  0  0  0  0  0  0  0  0  0  0  0
    4.4682    0.8060    0.6069 H   0  0  0  0  0  0  0  0  0  0  0  0
   -2.3036   -2.0065   -1.4171 H   0  0  0  0  0  0  0  0  0  0  0  0
  1  2  1  0
  2  3  2  0
  3  4  1  0
  4  5  2  0
  5  6  1  0
  6  7  1  0
  7  8  2  0
  8  9  1  0
  9 10  1  0
  9 11  2  0
 11 12  1  0
 12 13  1  0
  5 14  1  0
 14 15  2  0
 15  2  1  0
 12  6  2  0
  1 16  1  0
  1 17  1  0
  1 18  1  0
  3 19  1  0
  4 20  1  0
  7 21  1  0
  8 22  1  0
 11 23  1  0
 15 24  1  0
M  END
$$$$

     RDKit          3D

 24 25  0  0  0  0  0  0  0  0999 V2000
    4.1892    1.1069    0.5700 C   0  0  0  0  0  0  0  0  0  0  0  0
    2.7495    0.7611    0.3852 C   0  0  0  0  0  0  0  0  0  0  0  0
    1.8075    1.6876   -0.0794 C   0  0  0  0  0  0  0  0  0  0  0  0
    0.4959    1.3170   -0.2508 C   0  0  0  0  0  0  0  0  0  0  0  0
    0.1201    0.0039    0.0484 C   0  0  0  0  0  0  0  0  0  0  0  0
   -1.2836   -0.4621   -0.1349 C   0  0  0  0  0  0  0  0  0  0  0  0
   -1.5495   -1.5212   -1.0058 C   0  0  0  0  0  0  0  0  0  0  0  0
   -2.8485   -1.9707   -1.2329 C   0  0  0  0  0  0  0  0  0  0  0  0
   -3.8782   -1.3445   -0.5598 C   0  0  0  0  0  0  0  0  0  0  0  0
   -5.1446   -1.7616   -0.7746 F   0  0  0  0  0  0  0  0  0  0  0  0
   -3.6680   -0.3040    0.3282 C   0  0  0  0  0  0  0  0  0  0  0  0
   -2.3752    0.1155    0.5262 C   0  0  0  0  0  0  0  0  0  0  0  0
   -2.1099    1.3949    1.6936 Cl  0  0  0  0  0  0  0  0  0  0  0  0
    1.0028   -0.8948    0.4794 N   0  0  0  0  0  0  0  0  0  0  0  0
    2.2632   -0.5283    0.6464 C   0  0  0  0  0  0  0  0  0  0  0  0
    4.3043    2.1354    0.9124 H   0  0  0  0  0  0  0  0  0  0  0  0
    4.6711    0.4431    1.2896 H   0  0  0  0  0  0  0  0  0  0  0  0
    4.7264    1.0251   -0.3702 H   0  0  0  0  0  0  0  0  0  0  0  0
    2.1249    2.6984   -0.3048 H   0  0  0  0  0  0  0  0  0  0  0  0
   -0.2600    2.0159   -0.5987 H   0  0  0  0  0  0  0  0  0  0  0  0
   -0.7239   -1.9981   -1.5109 H   0  0  0  0  0  0  0  0  0  0  0  0
   -3.0559   -2.7850   -1.9164 H   0  0  0  0  0  0  0  0  0  0  0  0
   -4.5008    0.1583    0.8455 H   0  0  0  0  0  0  0  0  0  0  0  0
    2.9431   -1.2929    1.0142 H   0  0  0  0  0  0  0  0  0  0  0  0
  1  2  1  0
  2  3  2  0
  3  4  1  0
  4  5  2  0
  5  6  1  0
  6  7  1  0
  7  8  2  0
  8  9  1  0
  9 10  1  0
  9 11  2  0
 11 12  1  0
 12 13  1  0
  5 14  1  0
 14 15  2  0
 15  2  1  0
 12  6  2  0
  1 16  1  0
  1 17  1  0
  1 18  1  0
  3 19  1  0
  4 20  1  0
  7 21  1  0
  8 22  1  0
 11 23  1  0
 15 24  1  0
M  END
$$$$

     RDKit          3D

 24 25  0  0  0  0  0  0  0  0999 V2000
    3.4687    2.6303   -0.4087 C   0  0  0  0  0  0  0  0  0  0  0  0
    2.2984    1.7201   -0.2464 C   0  0  0  0  0  0  0  0  0  0  0  0
    2.4133    0.4336    0.2866 C   0  0  0  0  0  0  0  0  0  0  0  0
    1.3064   -0.3719    0.4094 C   0  0  0  0  0  0  0  0  0  0  0  0
    0.0642    0.1218    0.0026 C   0  0  0  0  0  0  0  0  0  0  0  0
   -1.1673   -0.7152    0.0931 C   0  0  0  0  0  0  0  0  0  0  0  0
   -1.9146   -0.9602   -1.0604 C   0  0  0  0  0  0  0  0  0  0  0  0
   -3.0410   -1.7796   -1.0402 C   0  0  0  0  0  0  0  0  0  0  0  0
   -3.4065   -2.3552    0.1595 C   0  0  0  0  0  0  0  0  0  0  0  0
   -4.4883   -3.1620    0.1964 F   0  0  0  0  0  0  0  0  0  0  0  0
   -2.7117   -2.1318    1.3352 C   0  0  0  0  0  0  0  0  0  0  0  0
   -1.6182   -1.3023    1.2833 C   0  0  0  0  0  0  0  0  0  0  0  0
   -0.8069   -0.9444    2.7940 Cl  0  0  0  0  0  0  0  0  0  0  0  0
   -0.0639    1.3417   -0.5194 N   0  0  0  0  0  0  0  0  0  0  0  0
    1.0058    2.1107   -0.6308 C   0  0  0  0  0  0  0  0  0  0  0  0
    3.6433    2.8586   -1.4584 H   0  0  0  0  0  0  0  0  0  0  0  0
    3.2979    3.5790    0.0980 H   0  0  0  0  0  0  0  0  0  0  0  0
    4.3776    2.1781   -0.0075 H   0  0  0  0  0  0  0  0  0  0  0  0
    3.3852    0.0734    0.5940 H   0  0  0  0  0  0  0  0  0  0  0  0
    1.3698   -1.3732    0.8231 H   0  0  0  0  0  0  0  0  0  0  0  0
   -1.6106   -0.4920   -1.9818 H   0  0  0  0  0  0  0  0  0  0  0  0
   -3.6165   -1.9697   -1.9367 H   0  0  0  0  0  0  0  0  0  0  0  0
   -3.0343   -2.5930    2.2616 H   0  0  0  0  0  0  0  0  0  0  0  0
    0.8490    3.1034   -1.0467 H   0  0  0  0  0  0  0  0  0  0  0  0
  1  2  1  0
  2  3  2  0
  3  4  1  0
  4  5  2  0
  5  6  1  0
  6  7  1  0
  7  8  2  0
  8  9  1  0
  9 10  1  0
  9 11  2  0
 11 12  1  0
 12 13  1  0
  5 14  1  0
 14 15  2  0
 15  2  1  0
 12  6  2  0
  1 16  1  0
  1 17  1  0
  1 18  1  0
  3 19  1  0
  4 20  1  0
  7 21  1  0
  8 22  1  0
 11 23  1  0
 15 24  1  0
M  END
$$$$

     RDKit          3D

 24 25  0  0  0  0  0  0  0  0999 V2000
   -3.2107   -2.9638    0.1369 C   0  0  0  0  0  0  0  0  0  0  0  0
   -2.0854   -1.9847    0.0859 C   0  0  0  0  0  0  0  0  0  0  0  0
   -0.7435   -2.3665    0.1829 C   0  0  0  0  0  0  0  0  0  0  0  0
    0.2541   -1.4228    0.1176 C   0  0  0  0  0  0  0  0  0  0  0  0
   -0.0950   -0.0784   -0.0465 C   0  0  0  0  0  0  0  0  0  0  0  0
    0.9294    1.0057   -0.0754 C   0  0  0  0  0  0  0  0  0  0  0  0
    0.7984    2.0818    0.8076 C   0  0  0  0  0  0  0  0  0  0  0  0
    1.7356    3.1104    0.8492 C   0  0  0  0  0  0  0  0  0  0  0  0
    2.8074    3.0506   -0.0187 C   0  0  0  0  0  0  0  0  0  0  0  0
    3.7229    4.0405    0.0085 F   0  0  0  0  0  0  0  0  0  0  0  0
    2.9772    2.0169   -0.9232 C   0  0  0  0  0  0  0  0  0  0  0  0
    2.0314    1.0209   -0.9412 C   0  0  0  0  0  0  0  0  0  0  0  0
    2.2205   -0.2468   -2.1359 Cl  0  0  0  0  0  0  0  0  0  0  0  0
   -1.3685    0.3015   -0.1382 N   0  0  0  0  0  0  0  0  0  0  0  0
   -2.3205   -0.6112   -0.0811 C   0  0  0  0  0  0  0  0  0  0  0  0
   -2.9049   -3.8913    0.6183 H   0  0  0  0  0  0  0  0  0  0  0  0
   -4.0664   -2.5537    0.6742 H   0  0  0  0  0  0  0  0  0  0  0  0
   -3.5513   -3.2084   -0.8681 H   0  0  0  0  0  0  0  0  0  0  0  0
   -0.4987   -3.4113    0.3235 H   0  0  0  0  0  0  0  0  0  0  0  0
    1.3038   -1.6913    0.1848 H   0  0  0  0  0  0  0  0  0  0  0  0
   -0.0578    2.1095    1.4625 H   0  0  0  0  0  0  0  0  0  0  0  0
    1.6357    3.9404    1.5385 H   0  0  0  0  0  0  0  0  0  0  0  0
    3.8283    2.0021   -1.5952 H   0  0  0  0  0  0  0  0  0  0  0  0
   -3.3421   -0.2499   -0.1669 H   0  0  0  0  0  0  0  0  0  0  0  0
  1  2  1  0
  2  3  2  0
  3  4  1  0
  4  5  2  0
  5  6  1  0
  6  7  1  0
  7  8  2  0
  8  9  1  0
  9 10  1  0
  9 11  2  0
 11 12  1  0
 12 13  1  0
  5 14  1  0
 14 15  2  0
 15  2  1  0
 12  6  2  0
  1 16  1  0
  1 17  1  0
  1 18  1  0
  3 19  1  0
  4 20  1  0
  7 21  1  0
  8 22  1  0
 11 23  1  0
 15 24  1  0
M  END
$$$$

     RDKit          3D

 24 25  0  0  0  0  0  0  0  0999 V2000
    0.5471   -4.2095    1.0593 C   0  0  0  0  0  0  0  0  0  0  0  0
    0.3749   -2.7692    0.7075 C   0  0  0  0  0  0  0  0  0  0  0  0
    0.7624   -1.7340    1.5637 C   0  0  0  0  0  0  0  0  0  0  0  0
    0.5611   -0.4208    1.2077 C   0  0  0  0  0  0  0  0  0  0  0  0
   -0.0348   -0.1380   -0.0200 C   0  0  0  0  0  0  0  0  0  0  0  0
   -0.2295    1.2804   -0.4382 C   0  0  0  0  0  0  0  0  0  0  0  0
    0.8892    2.1094   -0.5851 C   0  0  0  0  0  0  0  0  0  0  0  0
    0.7654    3.4381   -0.9739 C   0  0  0  0  0  0  0  0  0  0  0  0
   -0.4996    3.9293   -1.2125 C   0  0  0  0  0  0  0  0  0  0  0  0
   -0.6399    5.2154   -1.6008 F   0  0  0  0  0  0  0  0  0  0  0  0
   -1.6414    3.1569   -1.0700 C   0  0  0  0  0  0  0  0  0  0  0  0
   -1.4827    1.8460   -0.6802 C   0  0  0  0  0  0  0  0  0  0  0  0
   -2.9267    0.8846   -0.4797 Cl  0  0  0  0  0  0  0  0  0  0  0  0
   -0.4089   -1.1080   -0.8518 N   0  0  0  0  0  0  0  0  0  0  0  0
   -0.2110   -2.3709   -0.5034 C   0  0  0  0  0  0  0  0  0  0  0  0
    1.3241   -4.3424    1.8112 H   0  0  0  0  0  0  0  0  0  0  0  0
   -0.3748   -4.6161    1.4758 H   0  0  0  0  0  0  0  0  0  0  0  0
    0.7980   -4.8051    0.1845 H   0  0  0  0  0  0  0  0  0  0  0  0
    1.2145   -1.9734    2.5160 H   0  0  0  0  0  0  0  0  0  0  0  0
    0.8549    0.3983    1.8509 H   0  0  0  0  0  0  0  0  0  0  0  0
    1.8660    1.7018   -0.3866 H   0  0  0  0  0  0  0  0  0  0  0  0
    1.6373    4.0714   -1.0935 H   0  0  0  0  0  0  0  0  0  0  0  0
   -2.6201    3.5829   -1.2601 H   0  0  0  0  0  0  0  0  0  0  0  0
   -0.5255   -3.1273   -1.2209 H   0  0  0  0  0  0  0  0  0  0  0  0
  1  2  1  0
  2  3  2  0
  3  4  1  0
  4  5  2  0
  5  6  1  0
  6  7  1  0
  7  8  2  0
  8  9  1  0
  9 10  1  0
  9 11  2  0
 11 12  1  0
 12 13  1  0
  5 14  1  0
 14 15  2  0
 15  2  1  0
 12  6  2  0
  1 16  1  0
  1 17  1  0
  1 18  1  0
  3 19  1  0
  4 20  1  0
  7 21  1  0
  8 22  1  0
 11 23  1  0
 15 24  1  0
M  END
$$$$

     RDKit          3D

 24 25  0  0  0  0  0  0  0  0999 V2000
    2.6899   -0.5059    3.4118 C   0  0  0  0  0  0  0  0  0  0  0  0
    1.7714   -0.3244    2.2483 C   0  0  0  0  0  0  0  0  0  0  0  0
    0.5245    0.2973    2.3835 C   0  0  0  0  0  0  0  0  0  0  0  0
   -0.3037    0.4493    1.2935 C   0  0  0  0  0  0  0  0  0  0  0  0
    0.1212   -0.0328    0.0550 C   0  0  0  0  0  0  0  0  0  0  0  0
   -0.7614    0.0861   -1.1421 C   0  0  0  0  0  0  0  0  0  0  0  0
   -1.6052   -0.9661   -1.4978 C   0  0  0  0  0  0  0  0  0  0  0  0
   -2.4488   -0.8801   -2.6054 C   0  0  0  0  0  0  0  0  0  0  0  0
   -2.4297    0.2823   -3.3490 C   0  0  0  0  0  0  0  0  0  0  0  0
   -3.2369    0.3829   -4.4288 F   0  0  0  0  0  0  0  0  0  0  0  0
   -1.6112    1.3557   -3.0347 C   0  0  0  0  0  0  0  0  0  0  0  0
   -0.7950    1.2356   -1.9341 C   0  0  0  0  0  0  0  0  0  0  0  0
    0.2336    2.5882   -1.5178 Cl  0  0  0  0  0  0  0  0  0  0  0  0
    1.3019   -0.6185   -0.1017 N   0  0  0  0  0  0  0  0  0  0  0  0
    2.0992   -0.7549    0.9558 C   0  0  0  0  0  0  0  0  0  0  0  0
    3.0297    0.4561    3.7860 H   0  0  0  0  0  0  0  0  0  0  0  0
    3.5656   -1.1007    3.1503 H   0  0  0  0  0  0  0  0  0  0  0  0
    2.1764   -0.9907    4.2391 H   0  0  0  0  0  0  0  0  0  0  0  0
    0.2168    0.6486    3.3617 H   0  0  0  0  0  0  0  0  0  0  0  0
   -1.2703    0.9313    1.3642 H   0  0  0  0  0  0  0  0  0  0  0  0
   -1.5981   -1.8620   -0.8991 H   0  0  0  0  0  0  0  0  0  0  0  0
   -3.1059   -1.6963   -2.8781 H   0  0  0  0  0  0  0  0  0  0  0  0
   -1.6217    2.2536   -3.6416 H   0  0  0  0  0  0  0  0  0  0  0  0
    3.0577   -1.2346    0.7808 H   0  0  0  0  0  0  0  0  0  0  0  0
  1  2  1  0
  2  3  2  0
  3  4  1  0
  4  5  2  0
  5  6  1  0
  6  7  1  0
  7  8  2  0
  8  9  1  0
  9 10  1  0
  9 11  2  0
 11 12  1  0
 12 13  1  0
  5 14  1  0
 14 15  2  0
 15  2  1  0
 12  6  2  0
  1 16  1  0
  1 17  1  0
  1 18  1  0
  3 19  1  0
  4 20  1  0
  7 21  1  0
  8 22  1  0
 11 23  1  0
 15 24  1  0
M  END
$$$$

     RDKit          3D

 24 25  0  0  0  0  0  0  0  0999 V2000
   -4.1831    1.2814   -0.1104 C   0  0  0  0  0  0  0  0  0  0  0  0
   -2.7580    0.8485   -0.0470 C   0  0  0  0  0  0  0  0  0  0  0  0
   -2.4010   -0.4769    0.2182 C   0  0  0  0  0  0  0  0  0  0  0  0
   -1.0796   -0.8505    0.2466 C   0  0  0  0  0  0  0  0  0  0  0  0
   -0.0966    0.1136    0.0155 C   0  0  0  0  0  0  0  0  0  0  0  0
    1.3433   -0.2816    0.0224 C   0  0  0  0  0  0  0  0  0  0  0  0
    1.7631   -1.3447   -0.7898 C   0  0  0  0  0  0  0  0  0  0  0  0
    3.0910   -1.7455   -0.8426 C   0  0  0  0  0  0  0  0  0  0  0  0
    4.0039   -1.0672   -0.0681 C   0  0  0  0  0  0  0  0  0  0  0  0
    5.2995   -1.4383   -0.1124 F   0  0  0  0  0  0  0  0  0  0  0  0
    3.6456   -0.0212    0.7658 C   0  0  0  0  0  0  0  0  0  0  0  0
    2.3178    0.3416    0.8070 C   0  0  0  0  0  0  0  0  0  0  0  0
    1.8697    1.5970    1.9395 Cl  0  0  0  0  0  0  0  0  0  0  0  0
   -0.4180    1.3778   -0.2526 N   0  0  0  0  0  0  0  0  0  0  0  0
   -1.6933    1.7350   -0.2686 C   0  0  0  0  0  0  0  0  0  0  0  0
   -4.6007    1.0895   -1.0951 H   0  0  0  0  0  0  0  0  0  0  0  0
   -4.7918    0.7288    0.6029 H   0  0  0  0  0  0  0  0  0  0  0  0
   -4.2825    2.3488    0.0935 H   0  0  0  0  0  0  0  0  0  0  0  0
   -3.1784   -1.2051    0.4080 H   0  0  0  0  0  0  0  0  0  0  0  0
   -0.7806   -1.8719    0.4452 H   0  0  0  0  0  0  0  0  0  0  0  0
    1.0308   -1.8641   -1.3839 H   0  0  0  0  0  0  0  0  0  0  0  0
    3.4066   -2.5635   -1.4793 H   0  0  0  0  0  0  0  0  0  0  0  0
    4.3943    0.4864    1.3624 H   0  0  0  0  0  0  0  0  0  0  0  0
   -1.9021    2.7822   -0.4770 H   0  0  0  0  0  0  0  0  0  0  0  0
  1  2  1  0
  2  3  2  0
  3  4  1  0
  4  5  2  0
  5  6  1  0
  6  7  1  0
  7  8  2  0
  8  9  1  0
  9 10  1  0
  9 11  2  0
 11 12  1  0
 12 13  1  0
  5 14  1  0
 14 15  2  0
 15  2  1  0
 12  6  2  0
  1 16  1  0
  1 17  1  0
  1 18  1  0
  3 19  1  0
  4 20  1  0
  7 21  1  0
  8 22  1  0
 11 23  1  0
 15 24  1  0
M  END
$$$$

     RDKit          3D

 24 25  0  0  0  0  0  0  0  0999 V2000
   -0.2398    3.9328   -1.8974 C   0  0  0  0  0  0  0  0  0  0  0  0
   -0.1398    2.5861   -1.2635 C   0  0  0  0  0  0  0  0  0  0  0  0
    0.0349    1.4237   -2.0235 C   0  0  0  0  0  0  0  0  0  0  0  0
    0.1176    0.1983   -1.4085 C   0  0  0  0  0  0  0  0  0  0  0  0
    0.0211    0.1307   -0.0148 C   0  0  0  0  0  0  0  0  0  0  0  0
    0.0721   -1.1741    0.7069 C   0  0  0  0  0  0  0  0  0  0  0  0
   -0.9933   -1.5426    1.5313 C   0  0  0  0  0  0  0  0  0  0  0  0
   -1.0115   -2.7640    2.2004 C   0  0  0  0  0  0  0  0  0  0  0  0
    0.0638   -3.6120    2.0348 C   0  0  0  0  0  0  0  0  0  0  0  0
    0.0679   -4.7992    2.6756 F   0  0  0  0  0  0  0  0  0  0  0  0
    1.1507   -3.2908    1.2408 C   0  0  0  0  0  0  0  0  0  0  0  0
    1.1397   -2.0754    0.6017 C   0  0  0  0  0  0  0  0  0  0  0  0
    2.5574   -1.6473   -0.3365 Cl  0  0  0  0  0  0  0  0  0  0  0  0
   -0.1578    1.2227    0.7243 N   0  0  0  0  0  0  0  0  0  0  0  0
   -0.2258    2.4017    0.1238 C   0  0  0  0  0  0  0  0  0  0  0  0
    0.5713    4.0867   -2.6087 H   0  0  0  0  0  0  0  0  0  0  0  0
   -0.2076    4.7309   -1.1538 H   0  0  0  0  0  0  0  0  0  0  0  0
   -1.1644    4.0259   -2.4602 H   0  0  0  0  0  0  0  0  0  0  0  0
    0.0995    1.5031   -3.1023 H   0  0  0  0  0  0  0  0  0  0  0  0
    0.2679   -0.7172   -1.9728 H   0  0  0  0  0  0  0  0  0  0  0  0
   -1.8128   -0.8550    1.6567 H   0  0  0  0  0  0  0  0  0  0  0  0
   -1.8435   -3.0489    2.8318 H   0  0  0  0  0  0  0  0  0  0  0  0
    1.9825   -3.9790    1.1413 H   0  0  0  0  0  0  0  0  0  0  0  0
   -0.3502    3.2628    0.7727 H   0  0  0  0  0  0  0  0  0  0  0  0
  1  2  1  0
  2  3  2  0
  3  4  1  0
  4  5  2  0
  5  6  1  0
  6  7  1  0
  7  8  2  0
  8  9  1  0
  9 10  1  0
  9 11  2  0
 11 12  1  0
 12 13  1  0
  5 14  1  0
 14 15  2  0
 15  2  1  0
 12  6  2  0
  1 16  1  0
  1 17  1  0
  1 18  1  0
  3 19  1  0
  4 20  1  0
  7 21  1  0
  8 22  1  0
 11 23  1  0
 15 24  1  0
M  END
$$$$

     RDKit          3D

 24 25  0  0  0  0  0  0  0  0999 V2000
   -1.1442   -2.0079    3.7145 C   0  0  0  0  0  0  0  0  0  0  0  0
   -0.7681   -1.3249    2.4416 C   0  0  0  0  0  0  0  0  0  0  0  0
   -1.7276   -0.8257    1.5540 C   0  0  0  0  0  0  0  0  0  0  0  0
   -1.3438   -0.1890    0.3963 C   0  0  0  0  0  0  0  0  0  0  0  0
    0.0159   -0.0426    0.1253 C   0  0  0  0  0  0  0  0  0  0  0  0
    0.4606    0.6234   -1.1329 C   0  0  0  0  0  0  0  0  0  0  0  0
    0.0952    0.0774   -2.3691 C   0  0  0  0  0  0  0  0  0  0  0  0
    0.5211    0.6363   -3.5681 C   0  0  0  0  0  0  0  0  0  0  0  0
    1.3074    1.7668   -3.5134 C   0  0  0  0  0  0  0  0  0  0  0  0
    1.7417    2.3158   -4.6675 F   0  0  0  0  0  0  0  0  0  0  0  0
    1.6739    2.3662   -2.3191 C   0  0  0  0  0  0  0  0  0  0  0  0
    1.2353    1.7853   -1.1505 C   0  0  0  0  0  0  0  0  0  0  0  0
    1.6554    2.5749    0.3474 Cl  0  0  0  0  0  0  0  0  0  0  0  0
    0.9447   -0.5170    0.9529 N   0  0  0  0  0  0  0  0  0  0  0  0
    0.5682   -1.1235    2.0698 C   0  0  0  0  0  0  0  0  0  0  0  0
   -2.0301   -2.6262    3.5789 H   0  0  0  0  0  0  0  0  0  0  0  0
   -0.3333   -2.6344    4.0866 H   0  0  0  0  0  0  0  0  0  0  0  0
   -1.3879   -1.2802    4.4832 H   0  0  0  0  0  0  0  0  0  0  0  0
   -2.7777   -0.9473    1.7891 H   0  0  0  0  0  0  0  0  0  0  0  0
   -2.0666    0.1954   -0.3131 H   0  0  0  0  0  0  0  0  0  0  0  0
   -0.5322   -0.7983   -2.3840 H   0  0  0  0  0  0  0  0  0  0  0  0
    0.2458    0.2012   -4.5219 H   0  0  0  0  0  0  0  0  0  0  0  0
    2.2835    3.2634   -2.3164 H   0  0  0  0  0  0  0  0  0  0  0  0
    1.3628   -1.4892    2.7166 H   0  0  0  0  0  0  0  0  0  0  0  0
  1  2  1  0
  2  3  2  0
  3  4  1  0
  4  5  2  0
  5  6  1  0
  6  7  1  0
  7  8  2  0
  8  9  1  0
  9 10  1  0
  9 11  2  0
 11 12  1  0
 12 13  1  0
  5 14  1  0
 14 15  2  0
 15  2  1  0
 12  6  2  0
  1 16  1  0
  1 17  1  0
  1 18  1  0
  3 19  1  0
  4 20  1  0
  7 21  1  0
  8 22  1  0
 11 23  1  0
 15 24  1  0
M  END
$$$$

     RDKit          3D

 24 25  0  0  0  0  0  0  0  0999 V2000
   -1.8364   -2.5095    3.0726 C   0  0  0  0  0  0  0  0  0  0  0  0
   -1.1950   -1.6748    2.0152 C   0  0  0  0  0  0  0  0  0  0  0  0
    0.1538   -1.8207    1.6647 C   0  0  0  0  0  0  0  0  0  0  0  0
    0.7110   -1.0201    0.6962 C   0  0  0  0  0  0  0  0  0  0  0  0
   -0.0872   -0.0548    0.0756 C   0  0  0  0  0  0  0  0  0  0  0  0
    0.4644    0.8411   -0.9804 C   0  0  0  0  0  0  0  0  0  0  0  0
   -0.0273    0.7568   -2.2830 C   0  0  0  0  0  0  0  0  0  0  0  0
    0.4737    1.5609   -3.3048 C   0  0  0  0  0  0  0  0  0  0  0  0
    1.4749    2.4591   -2.9939 C   0  0  0  0  0  0  0  0  0  0  0  0
    1.9759    3.2416   -3.9739 F   0  0  0  0  0  0  0  0  0  0  0  0
    1.9893    2.5916   -1.7147 C   0  0  0  0  0  0  0  0  0  0  0  0
    1.4737    1.7785   -0.7343 C   0  0  0  0  0  0  0  0  0  0  0  0
    2.0967    1.9749    0.8899 Cl  0  0  0  0  0  0  0  0  0  0  0  0
   -1.3732    0.0915    0.3839 N   0  0  0  0  0  0  0  0  0  0  0  0
   -1.9027   -0.6850    1.3185 C   0  0  0  0  0  0  0  0  0  0  0  0
   -1.7138   -3.5662    2.8619 H   0  0  0  0  0  0  0  0  0  0  0  0
   -2.9026   -2.2928    3.1653 H   0  0  0  0  0  0  0  0  0  0  0  0
   -1.3703   -2.3314    4.0404 H   0  0  0  0  0  0  0  0  0  0  0  0
    0.7488   -2.5761    2.1665 H   0  0  0  0  0  0  0  0  0  0  0  0
    1.7552   -1.1056    0.4081 H   0  0  0  0  0  0  0  0  0  0  0  0
   -0.8168    0.0541   -2.4944 H   0  0  0  0  0  0  0  0  0  0  0  0
    0.0923    1.4940   -4.3161 H   0  0  0  0  0  0  0  0  0  0  0  0
    2.7691    3.3147   -1.5040 H   0  0  0  0  0  0  0  0  0  0  0  0
   -2.9537   -0.5216    1.5407 H   0  0  0  0  0  0  0  0  0  0  0  0
  1  2  1  0
  2  3  2  0
  3  4  1  0
  4  5  2  0
  5  6  1  0
  6  7  1  0
  7  8  2  0
  8  9  1  0
  9 10  1  0
  9 11  2  0
 11 12  1  0
 12 13  1  0
  5 14  1  0
 14 15  2  0
 15  2  1  0
 12  6  2  0
  1 16  1  0
  1 17  1  0
  1 18  1  0
  3 19  1  0
  4 20  1  0
  7 21  1  0
  8 22  1  0
 11 23  1  0
 15 24  1  0
M  END
$$$$

     RDKit          3D

 24 25  0  0  0  0  0  0  0  0999 V2000
    1.2246    0.3127    4.1841 C   0  0  0  0  0  0  0  0  0  0  0  0
    0.7801    0.2322    2.7642 C   0  0  0  0  0  0  0  0  0  0  0  0
   -0.2850    0.9813    2.2596 C   0  0  0  0  0  0  0  0  0  0  0  0
   -0.6561    0.8610    0.9418 C   0  0  0  0  0  0  0  0  0  0  0  0
    0.0423   -0.0252    0.1184 C   0  0  0  0  0  0  0  0  0  0  0  0
   -0.3009   -0.1821   -1.3248 C   0  0  0  0  0  0  0  0  0  0  0  0
    0.6715    0.0730   -2.2930 C   0  0  0  0  0  0  0  0  0  0  0  0
    0.3977   -0.0493   -3.6542 C   0  0  0  0  0  0  0  0  0  0  0  0
   -0.8743   -0.4310   -4.0315 C   0  0  0  0  0  0  0  0  0  0  0  0
   -1.1598   -0.5540   -5.3457 F   0  0  0  0  0  0  0  0  0  0  0  0
   -1.8748   -0.6975   -3.1134 C   0  0  0  0  0  0  0  0  0  0  0  0
   -1.5689   -0.5723   -1.7801 C   0  0  0  0  0  0  0  0  0  0  0  0
   -2.8341   -0.9510   -0.6284 Cl  0  0  0  0  0  0  0  0  0  0  0  0
    1.0686   -0.7396    0.5804 N   0  0  0  0  0  0  0  0  0  0  0  0
    1.4196   -0.6178    1.8483 C   0  0  0  0  0  0  0  0  0  0  0  0
    1.1947   -0.6692    4.6542 H   0  0  0  0  0  0  0  0  0  0  0  0
    2.2517    0.6638    4.2522 H   0  0  0  0  0  0  0  0  0  0  0  0
    0.5927    0.9918    4.7597 H   0  0  0  0  0  0  0  0  0  0  0  0
   -0.8122    1.6607    2.9153 H   0  0  0  0  0  0  0  0  0  0  0  0
   -1.4864    1.4248    0.5270 H   0  0  0  0  0  0  0  0  0  0  0  0
    1.6568    0.3679   -1.9715 H   0  0  0  0  0  0  0  0  0  0  0  0
    1.1564    0.1496   -4.4009 H   0  0  0  0  0  0  0  0  0  0  0  0
   -2.8626   -1.0028   -3.4418 H   0  0  0  0  0  0  0  0  0  0  0  0
    2.2583   -1.2269    2.1801 H   0  0  0  0  0  0  0  0  0  0  0  0
  1  2  1  0
  2  3  2  0
  3  4  1  0
  4  5  2  0
  5  6  1  0
  6  7  1  0
  7  8  2  0
  8  9  1  0
  9 10  1  0
  9 11  2  0
 11 12  1  0
 12 13  1  0
  5 14  1  0
 14 15  2  0
 15  2  1  0
 12  6  2  0
  1 16  1  0
  1 17  1  0
  1 18  1  0
  3 19  1  0
  4 20  1  0
  7 21  1  0
  8 22  1  0
 11 23  1  0
 15 24  1  0
M  END
$$$$

     RDKit          3D

 24 25  0  0  0  0  0  0  0  0999 V2000
    3.6948   -1.0034    2.1084 C   0  0  0  0  0  0  0  0  0  0  0  0
    2.4493   -0.6770    1.3521 C   0  0  0  0  0  0  0  0  0  0  0  0
    2.0085   -1.4278    0.2555 C   0  0  0  0  0  0  0  0  0  0  0  0
    0.8413   -1.0968   -0.3912 C   0  0  0  0  0  0  0  0  0  0  0  0
    0.1069    0.0015    0.0638 C   0  0  0  0  0  0  0  0  0  0  0  0
   -1.1756    0.4014   -0.5801 C   0  0  0  0  0  0  0  0  0  0  0  0
   -2.3635    0.3521    0.1516 C   0  0  0  0  0  0  0  0  0  0  0  0
   -3.5851    0.7033   -0.4207 C   0  0  0  0  0  0  0  0  0  0  0  0
   -3.5913    1.1166   -1.7387 C   0  0  0  0  0  0  0  0  0  0  0  0
   -4.7667    1.4584   -2.3098 F   0  0  0  0  0  0  0  0  0  0  0  0
   -2.4394    1.1937   -2.5034 C   0  0  0  0  0  0  0  0  0  0  0  0
   -1.2547    0.8343   -1.9095 C   0  0  0  0  0  0  0  0  0  0  0  0
    0.2064    0.9731   -2.8677 Cl  0  0  0  0  0  0  0  0  0  0  0  0
    0.5070    0.7245    1.1069 N   0  0  0  0  0  0  0  0  0  0  0  0
    1.6312    0.4010    1.7233 C   0  0  0  0  0  0  0  0  0  0  0  0
    4.3982   -1.5595    1.4870 H   0  0  0  0  0  0  0  0  0  0  0  0
    3.4680   -1.6207    2.9727 H   0  0  0  0  0  0  0  0  0  0  0  0
    4.1841   -0.0997    2.4721 H   0  0  0  0  0  0  0  0  0  0  0  0
    2.5950   -2.2768   -0.0739 H   0  0  0  0  0  0  0  0  0  0  0  0
    0.4804   -1.6523   -1.2533 H   0  0  0  0  0  0  0  0  0  0  0  0
   -2.3265    0.0411    1.1837 H   0  0  0  0  0  0  0  0  0  0  0  0
   -4.5079    0.6528    0.1443 H   0  0  0  0  0  0  0  0  0  0  0  0
   -2.4822    1.5292   -3.5345 H   0  0  0  0  0  0  0  0  0  0  0  0
    1.9219    1.0312    2.5615 H   0  0  0  0  0  0  0  0  0  0  0  0
  1  2  1  0
  2  3  2  0
  3  4  1  0
  4  5  2  0
  5  6  1  0
  6  7  1  0
  7  8  2  0
  8  9  1  0
  9 10  1  0
  9 11  2  0
 11 12  1  0
 12 13  1  0
  5 14  1  0
 14 15  2  0
 15  2  1  0
 12  6  2  0
  1 16  1  0
  1 17  1  0
  1 18  1  0
  3 19  1  0
  4 20  1  0
  7 21  1  0
  8 22  1  0
 11 23  1  0
 15 24  1  0
M  END
$$$$
