
     RDKit          3D

 23 24  0  0  0  0  0  0  0  0999 V2000
    2.6982   -4.5032    0.0978 O   0  0  0  0  0  0  0  0  0  0  0  0
    2.9828   -3.3236    0.0653 C   0  0  0  0  0  0  0  0  0  0  0  0
    2.0043   -2.2475    0.0392 C   0  0  0  0  0  0  0  0  0  0  0  0
    2.4010   -0.8983    0.0196 C   0  0  0  0  0  0  0  0  0  0  0  0
    1.4782    0.1217   -0.0002 C   0  0  0  0  0  0  0  0  0  0  0  0
    0.1005   -0.1502   -0.0036 C   0  0  0  0  0  0  0  0  0  0  0  0
   -0.9319    0.9289   -0.0173 C   0  0  0  0  0  0  0  0  0  0  0  0
   -0.5932    2.2781   -0.1832 C   0  0  0  0  0  0  0  0  0  0  0  0
   -1.5936    3.2333   -0.1689 C   0  0  0  0  0  0  0  0  0  0  0  0
   -2.9137    2.8333   -0.0003 C   0  0  0  0  0  0  0  0  0  0  0  0
   -3.1627    1.4686    0.1485 C   0  0  0  0  0  0  0  0  0  0  0  0
   -2.2065    0.5384    0.1355 N   0  0  0  0  0  0  0  0  0  0  0  0
   -0.3041   -1.4926    0.0140 C   0  0  0  0  0  0  0  0  0  0  0  0
    0.6209   -2.5103    0.0343 C   0  0  0  0  0  0  0  0  0  0  0  0
    4.0075   -3.0115    0.0600 H   0  0  0  0  0  0  0  0  0  0  0  0
    3.4576   -0.6561    0.0204 H   0  0  0  0  0  0  0  0  0  0  0  0
    1.8245    1.1466   -0.0125 H   0  0  0  0  0  0  0  0  0  0  0  0
    0.4341    2.5766   -0.3190 H   0  0  0  0  0  0  0  0  0  0  0  0
   -1.3450    4.2699   -0.2921 H   0  0  0  0  0  0  0  0  0  0  0  0
   -3.7195    3.5447    0.0184 H   0  0  0  0  0  0  0  0  0  0  0  0
   -4.1711    1.1120    0.2808 H   0  0  0  0  0  0  0  0  0  0  0  0
   -1.3606   -1.7143    0.0136 H   0  0  0  0  0  0  0  0  0  0  0  0
    0.2925   -3.5446    0.0495 H   0  0  0  0  0  0  0  0  0  0  0  0
  1  2  2  0
  2  3  1  0
  3  4  1  0
  4  5  2  0
  5  6  1  0
  6  7  1  0
  7  8  2  0
  8  9  1  0
  9 10  2  0
 10 11  1  0
 11 12  2  0
  6 13  2  0
 13 14  1  0
 14  3  2  0
 12  7  1  0
  2 15  1  0
  4 16  1  0
  5 17  1  0
  8 18  1  0
  9 19  1  0
 10 20  1  0
 11 21  1  0
 13 22  1  0
 14 23  1  0
M  END
$$$$

     RDKit          3D

 23 24  0  0  0  0  0  0  0  0999 V2000
    1.1840   -5.0877    0.0847 O   0  0  0  0  0  0  0  0  0  0  0  0
    1.7469   -4.0744    0.4475 C   0  0  0  0  0  0  0  0  0  0  0  0
    1.1999   -2.7354    0.2856 C   0  0  0  0  0  0  0  0  0  0  0  0
   -0.0496   -2.5197   -0.3161 C   0  0  0  0  0  0  0  0  0  0  0  0
   -0.5701   -1.2545   -0.4578 C   0  0  0  0  0  0  0  0  0  0  0  0
    0.1375   -0.1327   -0.0014 C   0  0  0  0  0  0  0  0  0  0  0  0
   -0.4252    1.2382   -0.1334 C   0  0  0  0  0  0  0  0  0  0  0  0
   -1.8077    1.4526   -0.1042 C   0  0  0  0  0  0  0  0  0  0  0  0
   -2.2883    2.7406   -0.2384 C   0  0  0  0  0  0  0  0  0  0  0  0
   -1.3913    3.7897   -0.4015 C   0  0  0  0  0  0  0  0  0  0  0  0
   -0.0297    3.4802   -0.4120 C   0  0  0  0  0  0  0  0  0  0  0  0
    0.4456    2.2416   -0.2707 N   0  0  0  0  0  0  0  0  0  0  0  0
    1.3935   -0.3306    0.5840 C   0  0  0  0  0  0  0  0  0  0  0  0
    1.9086   -1.5988    0.7311 C   0  0  0  0  0  0  0  0  0  0  0  0
    2.7054   -4.1216    0.9256 H   0  0  0  0  0  0  0  0  0  0  0  0
   -0.6140   -3.3749   -0.6786 H   0  0  0  0  0  0  0  0  0  0  0  0
   -1.5286   -1.1149   -0.9383 H   0  0  0  0  0  0  0  0  0  0  0  0
   -2.4851    0.6226    0.0340 H   0  0  0  0  0  0  0  0  0  0  0  0
   -3.3475    2.9211   -0.2068 H   0  0  0  0  0  0  0  0  0  0  0  0
   -1.7225    4.8058   -0.5183 H   0  0  0  0  0  0  0  0  0  0  0  0
    0.7052    4.2595   -0.5340 H   0  0  0  0  0  0  0  0  0  0  0  0
    1.9534    0.5341    0.9233 H   0  0  0  0  0  0  0  0  0  0  0  0
    2.8797   -1.7407    1.1958 H   0  0  0  0  0  0  0  0  0  0  0  0
  1  2  2  0
  2  3  1  0
  3  4  1  0
  4  5  2  0
  5  6  1  0
  6  7  1  0
  7  8  2  0
  8  9  1  0
  9 10  2  0
 10 11  1  0
 11 12  2  0
  6 13  2  0
 13 14  1  0
 14  3  2  0
 12  7  1  0
  2 15  1  0
  4 16  1  0
  5 17  1  0
  8 18  1  0
  9 19  1  0
 10 20  1  0
 11 21  1  0
 13 22  1  0
 14 23  1  0
M  END
$$$$

     RDKit          3D

 23 24  0  0  0  0  0  0  0  0999 V2000
   -4.8630    0.7008    1.8418 O   0  0  0  0  0  0  0  0  0  0  0  0
   -3.8760    1.3946    1.6966 C   0  0  0  0  0  0  0  0  0  0  0  0
   -2.6156    0.9177    1.1481 C   0  0  0  0  0  0  0  0  0  0  0  0
   -1.5134    1.7823    1.0010 C   0  0  0  0  0  0  0  0  0  0  0  0
   -0.3208    1.3382    0.4819 C   0  0  0  0  0  0  0  0  0  0  0  0
   -0.1645    0.0027    0.0839 C   0  0  0  0  0  0  0  0  0  0  0  0
    1.1217   -0.4916   -0.4727 C   0  0  0  0  0  0  0  0  0  0  0  0
    1.9394    0.3358   -1.2513 C   0  0  0  0  0  0  0  0  0  0  0  0
    3.1357   -0.1638   -1.7304 C   0  0  0  0  0  0  0  0  0  0  0  0
    3.4996   -1.4701   -1.4217 C   0  0  0  0  0  0  0  0  0  0  0  0
    2.6148   -2.2232   -0.6483 C   0  0  0  0  0  0  0  0  0  0  0  0
    1.4520   -1.7548   -0.1946 N   0  0  0  0  0  0  0  0  0  0  0  0
   -1.2481   -0.8693    0.2347 C   0  0  0  0  0  0  0  0  0  0  0  0
   -2.4450   -0.4208    0.7465 C   0  0  0  0  0  0  0  0  0  0  0  0
   -3.8878    2.4294    1.9774 H   0  0  0  0  0  0  0  0  0  0  0  0
   -1.6090    2.8201    1.3031 H   0  0  0  0  0  0  0  0  0  0  0  0
    0.5163    2.0190    0.3863 H   0  0  0  0  0  0  0  0  0  0  0  0
    1.6289    1.3454   -1.4786 H   0  0  0  0  0  0  0  0  0  0  0  0
    3.7698    0.4553   -2.3390 H   0  0  0  0  0  0  0  0  0  0  0  0
    4.4245   -1.8954   -1.7684 H   0  0  0  0  0  0  0  0  0  0  0  0
    2.8476   -3.2431   -0.3860 H   0  0  0  0  0  0  0  0  0  0  0  0
   -1.1227   -1.9058   -0.0568 H   0  0  0  0  0  0  0  0  0  0  0  0
   -3.2845   -1.1034    0.8463 H   0  0  0  0  0  0  0  0  0  0  0  0
  1  2  2  0
  2  3  1  0
  3  4  1  0
  4  5  2  0
  5  6  1  0
  6  7  1  0
  7  8  2  0
  8  9  1  0
  9 10  2  0
 10 11  1  0
 11 12  2  0
  6 13  2  0
 13 14  1  0
 14  3  2  0
 12  7  1  0
  2 15  1  0
  4 16  1  0
  5 17  1  0
  8 18  1  0
  9 19  1  0
 10 20  1  0
 11 21  1  0
 13 22  1  0
 14 23  1  0
M  END
$$$$

     RDKit          3D

 23 24  0  0  0  0  0  0  0  0999 V2000
   -0.3686   -1.4564    5.0169 O   0  0  0  0  0  0  0  0  0  0  0  0
    0.2868   -1.8286    4.0655 C   0  0  0  0  0  0  0  0  0  0  0  0
    0.2032   -1.2347    2.7407 C   0  0  0  0  0  0  0  0  0  0  0  0
   -0.6711   -0.1740    2.4661 C   0  0  0  0  0  0  0  0  0  0  0  0
   -0.7544    0.3869    1.2130 C   0  0  0  0  0  0  0  0  0  0  0  0
    0.0381   -0.0863    0.1553 C   0  0  0  0  0  0  0  0  0  0  0  0
   -0.0305    0.4917   -1.2211 C   0  0  0  0  0  0  0  0  0  0  0  0
   -0.7903    1.6328   -1.5145 C   0  0  0  0  0  0  0  0  0  0  0  0
   -0.8276    2.1042   -2.8140 C   0  0  0  0  0  0  0  0  0  0  0  0
   -0.1071    1.4426   -3.8010 C   0  0  0  0  0  0  0  0  0  0  0  0
    0.6311    0.3225   -3.4195 C   0  0  0  0  0  0  0  0  0  0  0  0
    0.6773   -0.1394   -2.1689 N   0  0  0  0  0  0  0  0  0  0  0  0
    0.9144   -1.1503    0.4190 C   0  0  0  0  0  0  0  0  0  0  0  0
    0.9980   -1.7062    1.6745 C   0  0  0  0  0  0  0  0  0  0  0  0
    0.9833   -2.6360    4.1686 H   0  0  0  0  0  0  0  0  0  0  0  0
   -1.2951    0.2128    3.2640 H   0  0  0  0  0  0  0  0  0  0  0  0
   -1.4440    1.2019    1.0419 H   0  0  0  0  0  0  0  0  0  0  0  0
   -1.3411    2.1458   -0.7424 H   0  0  0  0  0  0  0  0  0  0  0  0
   -1.4059    2.9768   -3.0478 H   0  0  0  0  0  0  0  0  0  0  0  0
   -0.1142    1.7737   -4.8232 H   0  0  0  0  0  0  0  0  0  0  0  0
    1.2085   -0.2233   -4.1463 H   0  0  0  0  0  0  0  0  0  0  0  0
    1.5245   -1.5323   -0.3885 H   0  0  0  0  0  0  0  0  0  0  0  0
    1.6848   -2.5243    1.8618 H   0  0  0  0  0  0  0  0  0  0  0  0
  1  2  2  0
  2  3  1  0
  3  4  1  0
  4  5  2  0
  5  6  1  0
  6  7  1  0
  7  8  2  0
  8  9  1  0
  9 10  2  0
 10 11  1  0
 11 12  2  0
  6 13  2  0
 13 14  1  0
 14  3  2  0
 12  7  1  0
  2 15  1  0
  4 16  1  0
  5 17  1  0
  8 18  1  0
  9 19  1  0
 10 20  1  0
 11 21  1  0
 13 22  1  0
 14 23  1  0
M  END
$$$$

     RDKit          3D

 23 24  0  0  0  0  0  0  0  0999 V2000
   -3.9452   -2.5255   -2.3628 O   0  0  0  0  0  0  0  0  0  0  0  0
   -3.5371   -1.3819   -2.3517 C   0  0  0  0  0  0  0  0  0  0  0  0
   -2.3840   -0.9326   -1.5878 C   0  0  0  0  0  0  0  0  0  0  0  0
   -1.6628   -1.8029   -0.7568 C   0  0  0  0  0  0  0  0  0  0  0  0
   -0.5801   -1.3683   -0.0279 C   0  0  0  0  0  0  0  0  0  0  0  0
   -0.1478   -0.0335   -0.1000 C   0  0  0  0  0  0  0  0  0  0  0  0
    1.0279    0.4767    0.6674 C   0  0  0  0  0  0  0  0  0  0  0  0
    1.7985   -0.3562    1.4883 C   0  0  0  0  0  0  0  0  0  0  0  0
    2.8786    0.1772    2.1695 C   0  0  0  0  0  0  0  0  0  0  0  0
    3.1750    1.5279    2.0296 C   0  0  0  0  0  0  0  0  0  0  0  0
    2.3559    2.2855    1.1926 C   0  0  0  0  0  0  0  0  0  0  0  0
    1.3130    1.7810    0.5280 N   0  0  0  0  0  0  0  0  0  0  0  0
   -0.8595    0.8433   -0.9315 C   0  0  0  0  0  0  0  0  0  0  0  0
   -1.9466    0.4085   -1.6521 C   0  0  0  0  0  0  0  0  0  0  0  0
   -4.0246   -0.6281   -2.9355 H   0  0  0  0  0  0  0  0  0  0  0  0
   -1.9676   -2.8414   -0.6871 H   0  0  0  0  0  0  0  0  0  0  0  0
   -0.0546   -2.0678    0.6086 H   0  0  0  0  0  0  0  0  0  0  0  0
    1.5557   -1.4021    1.5947 H   0  0  0  0  0  0  0  0  0  0  0  0
    3.4774   -0.4536    2.7963 H   0  0  0  0  0  0  0  0  0  0  0  0
    4.0038    1.9814    2.5429 H   0  0  0  0  0  0  0  0  0  0  0  0
    2.5458    3.3372    1.0546 H   0  0  0  0  0  0  0  0  0  0  0  0
   -0.5361    1.8733   -0.9921 H   0  0  0  0  0  0  0  0  0  0  0  0
   -2.4854    1.1020   -2.2873 H   0  0  0  0  0  0  0  0  0  0  0  0
  1  2  2  0
  2  3  1  0
  3  4  1  0
  4  5  2  0
  5  6  1  0
  6  7  1  0
  7  8  2  0
  8  9  1  0
  9 10  2  0
 10 11  1  0
 11 12  2  0
  6 13  2  0
 13 14  1  0
 14  3  2  0
 12  7  1  0
  2 15  1  0
  4 16  1  0
  5 17  1  0
  8 18  1  0
  9 19  1  0
 10 20  1  0
 11 21  1  0
 13 22  1  0
 14 23  1  0
M  END
$$$$

     RDKit          3D

 23 24  0  0  0  0  0  0  0  0999 V2000
   -3.9869   -1.6223    2.9804 O   0  0  0  0  0  0  0  0  0  0  0  0
   -3.2827   -0.6333    2.9570 C   0  0  0  0  0  0  0  0  0  0  0  0
   -2.2168   -0.4137    1.9906 C   0  0  0  0  0  0  0  0  0  0  0  0
   -1.9332   -1.3483    0.9836 C   0  0  0  0  0  0  0  0  0  0  0  0
   -0.9239   -1.1416    0.0714 C   0  0  0  0  0  0  0  0  0  0  0  0
   -0.1325    0.0155    0.1247 C   0  0  0  0  0  0  0  0  0  0  0  0
    0.9751    0.2615   -0.8423 C   0  0  0  0  0  0  0  0  0  0  0  0
    1.4986   -0.7625   -1.6433 C   0  0  0  0  0  0  0  0  0  0  0  0
    2.5105   -0.4687   -2.5384 C   0  0  0  0  0  0  0  0  0  0  0  0
    2.9943    0.8314   -2.6155 C   0  0  0  0  0  0  0  0  0  0  0  0
    2.4264    1.7842   -1.7688 C   0  0  0  0  0  0  0  0  0  0  0  0
    1.4481    1.5130   -0.9045 N   0  0  0  0  0  0  0  0  0  0  0  0
   -0.4134    0.9625    1.1196 C   0  0  0  0  0  0  0  0  0  0  0  0
   -1.4243    0.7537    2.0298 C   0  0  0  0  0  0  0  0  0  0  0  0
   -3.4243    0.1506    3.6743 H   0  0  0  0  0  0  0  0  0  0  0  0
   -2.5267   -2.2544    0.9236 H   0  0  0  0  0  0  0  0  0  0  0  0
   -0.7461   -1.8751   -0.7022 H   0  0  0  0  0  0  0  0  0  0  0  0
    1.1313   -1.7734   -1.5559 H   0  0  0  0  0  0  0  0  0  0  0  0
    2.9162   -1.2455   -3.1592 H   0  0  0  0  0  0  0  0  0  0  0  0
    3.7781    1.1039   -3.2987 H   0  0  0  0  0  0  0  0  0  0  0  0
    2.7752    2.8040   -1.7850 H   0  0  0  0  0  0  0  0  0  0  0  0
    0.1826    1.8647    1.1609 H   0  0  0  0  0  0  0  0  0  0  0  0
   -1.6256    1.4937    2.7982 H   0  0  0  0  0  0  0  0  0  0  0  0
  1  2  2  0
  2  3  1  0
  3  4  1  0
  4  5  2  0
  5  6  1  0
  6  7  1  0
  7  8  2  0
  8  9  1  0
  9 10  2  0
 10 11  1  0
 11 12  2  0
  6 13  2  0
 13 14  1  0
 14  3  2  0
 12  7  1  0
  2 15  1  0
  4 16  1  0
  5 17  1  0
  8 18  1  0
  9 19  1  0
 10 20  1  0
 11 21  1  0
 13 22  1  0
 14 23  1  0
M  END
$$$$

     RDKit          3D

 23 24  0  0  0  0  0  0  0  0999 V2000
    3.5186    2.8198   -2.6602 O   0  0  0  0  0  0  0  0  0  0  0  0
    2.8567    3.0003   -1.6580 C   0  0  0  0  0  0  0  0  0  0  0  0
    1.9303    2.0235   -1.1071 C   0  0  0  0  0  0  0  0  0  0  0  0
    1.7217    0.7791   -1.7201 C   0  0  0  0  0  0  0  0  0  0  0  0
    0.8456   -0.1428   -1.1969 C   0  0  0  0  0  0  0  0  0  0  0  0
    0.1208    0.1354   -0.0274 C   0  0  0  0  0  0  0  0  0  0  0  0
   -0.8432   -0.8399    0.5580 C   0  0  0  0  0  0  0  0  0  0  0  0
   -1.3690   -1.8975   -0.1948 C   0  0  0  0  0  0  0  0  0  0  0  0
   -2.2493   -2.7791    0.4051 C   0  0  0  0  0  0  0  0  0  0  0  0
   -2.5947   -2.5969    1.7383 C   0  0  0  0  0  0  0  0  0  0  0  0
   -2.0332   -1.5106    2.4092 C   0  0  0  0  0  0  0  0  0  0  0  0
   -1.1834   -0.6528    1.8397 N   0  0  0  0  0  0  0  0  0  0  0  0
    0.3303    1.3700    0.6010 C   0  0  0  0  0  0  0  0  0  0  0  0
    1.2038    2.2923    0.0731 C   0  0  0  0  0  0  0  0  0  0  0  0
    2.9340    3.9187   -1.1124 H   0  0  0  0  0  0  0  0  0  0  0  0
    2.2661    0.5413   -2.6290 H   0  0  0  0  0  0  0  0  0  0  0  0
    0.7218   -1.0986   -1.6856 H   0  0  0  0  0  0  0  0  0  0  0  0
   -1.1031   -2.0173   -1.2342 H   0  0  0  0  0  0  0  0  0  0  0  0
   -2.6584   -3.5937   -0.1612 H   0  0  0  0  0  0  0  0  0  0  0  0
   -3.2726   -3.2620    2.2420 H   0  0  0  0  0  0  0  0  0  0  0  0
   -2.2744   -1.3248    3.4433 H   0  0  0  0  0  0  0  0  0  0  0  0
   -0.2104    1.5855    1.5128 H   0  0  0  0  0  0  0  0  0  0  0  0
    1.3419    3.2501    0.5643 H   0  0  0  0  0  0  0  0  0  0  0  0
  1  2  2  0
  2  3  1  0
  3  4  1  0
  4  5  2  0
  5  6  1  0
  6  7  1  0
  7  8  2  0
  8  9  1  0
  9 10  2  0
 10 11  1  0
 11 12  2  0
  6 13  2  0
 13 14  1  0
 14  3  2  0
 12  7  1  0
  2 15  1  0
  4 16  1  0
  5 17  1  0
  8 18  1  0
  9 19  1  0
 10 20  1  0
 11 21  1  0
 13 22  1  0
 14 23  1  0
M  END
$$$$

     RDKit          3D

 23 24  0  0  0  0  0  0  0  0999 V2000
    2.7881   -4.1368   -1.5807 O   0  0  0  0  0  0  0  0  0  0  0  0
    2.6936   -3.5089   -0.5458 C   0  0  0  0  0  0  0  0  0  0  0  0
    1.8070   -2.3705   -0.3592 C   0  0  0  0  0  0  0  0  0  0  0  0
    1.0079   -1.8759   -1.4033 C   0  0  0  0  0  0  0  0  0  0  0  0
    0.1787   -0.7925   -1.2231 C   0  0  0  0  0  0  0  0  0  0  0  0
    0.0999   -0.1517    0.0211 C   0  0  0  0  0  0  0  0  0  0  0  0
   -0.7957    1.0157    0.2432 C   0  0  0  0  0  0  0  0  0  0  0  0
   -1.1053    1.9039   -0.7924 C   0  0  0  0  0  0  0  0  0  0  0  0
   -1.9468    2.9691   -0.5311 C   0  0  0  0  0  0  0  0  0  0  0  0
   -2.4733    3.1265    0.7458 C   0  0  0  0  0  0  0  0  0  0  0  0
   -2.1060    2.1930    1.7163 C   0  0  0  0  0  0  0  0  0  0  0  0
   -1.2838    1.1698    1.4786 N   0  0  0  0  0  0  0  0  0  0  0  0
    0.8835   -0.6402    1.0729 C   0  0  0  0  0  0  0  0  0  0  0  0
    1.7187   -1.7183    0.8884 C   0  0  0  0  0  0  0  0  0  0  0  0
    3.2685   -3.7866    0.3163 H   0  0  0  0  0  0  0  0  0  0  0  0
    1.0448   -2.3629   -2.3735 H   0  0  0  0  0  0  0  0  0  0  0  0
   -0.4280   -0.4320   -2.0431 H   0  0  0  0  0  0  0  0  0  0  0  0
   -0.6798    1.7640   -1.7766 H   0  0  0  0  0  0  0  0  0  0  0  0
   -2.1847    3.6644   -1.3147 H   0  0  0  0  0  0  0  0  0  0  0  0
   -3.1383    3.9353    0.9893 H   0  0  0  0  0  0  0  0  0  0  0  0
   -2.4898    2.2688    2.7218 H   0  0  0  0  0  0  0  0  0  0  0  0
    0.8172   -0.1513    2.0367 H   0  0  0  0  0  0  0  0  0  0  0  0
    2.3235   -2.0830    1.7130 H   0  0  0  0  0  0  0  0  0  0  0  0
  1  2  2  0
  2  3  1  0
  3  4  1  0
  4  5  2  0
  5  6  1  0
  6  7  1  0
  7  8  2  0
  8  9  1  0
  9 10  2  0
 10 11  1  0
 11 12  2  0
  6 13  2  0
 13 14  1  0
 14  3  2  0
 12  7  1  0
  2 15  1  0
  4 16  1  0
  5 17  1  0
  8 18  1  0
  9 19  1  0
 10 20  1  0
 11 21  1  0
 13 22  1  0
 14 23  1  0
M  END
$$$$

     RDKit          3D

 23 24  0  0  0  0  0  0  0  0999 V2000
    3.2525   -3.8435    1.4071 O   0  0  0  0  0  0  0  0  0  0  0  0
    2.2924   -3.7613    0.6696 C   0  0  0  0  0  0  0  0  0  0  0  0
    1.5563   -2.5328    0.4189 C   0  0  0  0  0  0  0  0  0  0  0  0
    0.4525   -2.5110   -0.4588 C   0  0  0  0  0  0  0  0  0  0  0  0
   -0.2569   -1.3498   -0.6867 C   0  0  0  0  0  0  0  0  0  0  0  0
    0.0924   -0.1593   -0.0391 C   0  0  0  0  0  0  0  0  0  0  0  0
   -0.7009    1.0780   -0.2726 C   0  0  0  0  0  0  0  0  0  0  0  0
   -0.8062    2.0722    0.7067 C   0  0  0  0  0  0  0  0  0  0  0  0
   -1.5528    3.2035    0.4372 C   0  0  0  0  0  0  0  0  0  0  0  0
   -2.1756    3.3291   -0.7988 C   0  0  0  0  0  0  0  0  0  0  0  0
   -2.0173    2.2858   -1.7122 C   0  0  0  0  0  0  0  0  0  0  0  0
   -1.3096    1.1832   -1.4584 N   0  0  0  0  0  0  0  0  0  0  0  0
    1.2044   -0.1696    0.8186 C   0  0  0  0  0  0  0  0  0  0  0  0
    1.9095   -1.3239    1.0405 C   0  0  0  0  0  0  0  0  0  0  0  0
    1.9309   -4.6255    0.1474 H   0  0  0  0  0  0  0  0  0  0  0  0
    0.1579   -3.4301   -0.9575 H   0  0  0  0  0  0  0  0  0  0  0  0
   -1.0917   -1.3439   -1.3766 H   0  0  0  0  0  0  0  0  0  0  0  0
   -0.3207    1.9483    1.6646 H   0  0  0  0  0  0  0  0  0  0  0  0
   -1.6463    3.9728    1.1822 H   0  0  0  0  0  0  0  0  0  0  0  0
   -2.7598    4.1950   -1.0537 H   0  0  0  0  0  0  0  0  0  0  0  0
   -2.4794    2.3402   -2.6856 H   0  0  0  0  0  0  0  0  0  0  0  0
    1.5070    0.7545    1.2943 H   0  0  0  0  0  0  0  0  0  0  0  0
    2.7614   -1.3117    1.7130 H   0  0  0  0  0  0  0  0  0  0  0  0
  1  2  2  0
  2  3  1  0
  3  4  1  0
  4  5  2  0
  5  6  1  0
  6  7  1  0
  7  8  2  0
  8  9  1  0
  9 10  2  0
 10 11  1  0
 11 12  2  0
  6 13  2  0
 13 14  1  0
 14  3  2  0
 12  7  1  0
  2 15  1  0
  4 16  1  0
  5 17  1  0
  8 18  1  0
  9 19  1  0
 10 20  1  0
 11 21  1  0
 13 22  1  0
 14 23  1  0
M  END
$$$$

     RDKit          3D

 23 24  0  0  0  0  0  0  0  0999 V2000
   -0.2407    4.7015   -2.3372 O   0  0  0  0  0  0  0  0  0  0  0  0
    0.0244    3.5696   -2.6844 C   0  0  0  0  0  0  0  0  0  0  0  0
   -0.0070    2.4128   -1.8024 C   0  0  0  0  0  0  0  0  0  0  0  0
   -0.3652    2.5240   -0.4470 C   0  0  0  0  0  0  0  0  0  0  0  0
   -0.3819    1.4232    0.3865 C   0  0  0  0  0  0  0  0  0  0  0  0
   -0.0319    0.1537   -0.0932 C   0  0  0  0  0  0  0  0  0  0  0  0
   -0.0365   -1.0134    0.8388 C   0  0  0  0  0  0  0  0  0  0  0  0
    0.4175   -2.2825    0.4527 C   0  0  0  0  0  0  0  0  0  0  0  0
    0.3943   -3.3185    1.3694 C   0  0  0  0  0  0  0  0  0  0  0  0
   -0.0814   -3.0801    2.6532 C   0  0  0  0  0  0  0  0  0  0  0  0
   -0.5185   -1.7890    2.9499 C   0  0  0  0  0  0  0  0  0  0  0  0
   -0.4934   -0.7802    2.0772 N   0  0  0  0  0  0  0  0  0  0  0  0
    0.3135    0.0365   -1.4505 C   0  0  0  0  0  0  0  0  0  0  0  0
    0.3249    1.1305   -2.2763 C   0  0  0  0  0  0  0  0  0  0  0  0
    0.3084    3.3656   -3.6958 H   0  0  0  0  0  0  0  0  0  0  0  0
   -0.6360    3.5026   -0.0595 H   0  0  0  0  0  0  0  0  0  0  0  0
   -0.6712    1.5293    1.4213 H   0  0  0  0  0  0  0  0  0  0  0  0
    0.7788   -2.4562   -0.5479 H   0  0  0  0  0  0  0  0  0  0  0  0
    0.7461   -4.2913    1.0845 H   0  0  0  0  0  0  0  0  0  0  0  0
   -0.1165   -3.8575    3.3953 H   0  0  0  0  0  0  0  0  0  0  0  0
   -0.8971   -1.5546    3.9307 H   0  0  0  0  0  0  0  0  0  0  0  0
    0.5727   -0.9355   -1.8478 H   0  0  0  0  0  0  0  0  0  0  0  0
    0.5968    1.0097   -3.3175 H   0  0  0  0  0  0  0  0  0  0  0  0
  1  2  2  0
  2  3  1  0
  3  4  1  0
  4  5  2  0
  5  6  1  0
  6  7  1  0
  7  8  2  0
  8  9  1  0
  9 10  2  0
 10 11  1  0
 11 12  2  0
  6 13  2  0
 13 14  1  0
 14  3  2  0
 12  7  1  0
  2 15  1  0
  4 16  1  0
  5 17  1  0
  8 18  1  0
  9 19  1  0
 10 20  1  0
 11 21  1  0
 13 22  1  0
 14 23  1  0
M  END
$$$$

     RDKit          3D

 23 24  0  0  0  0  0  0  0  0999 V2000
   -5.1803    0.5046    0.5067 O   0  0  0  0  0  0  0  0  0  0  0  0
   -4.2180    0.8960    1.1353 C   0  0  0  0  0  0  0  0  0  0  0  0
   -2.8377    0.5982    0.7838 C   0  0  0  0  0  0  0  0  0  0  0  0
   -2.5209   -0.2096   -0.3200 C   0  0  0  0  0  0  0  0  0  0  0  0
   -1.2172   -0.4923   -0.6551 C   0  0  0  0  0  0  0  0  0  0  0  0
   -0.1539    0.0328    0.0954 C   0  0  0  0  0  0  0  0  0  0  0  0
    1.2669   -0.2457   -0.2523 C   0  0  0  0  0  0  0  0  0  0  0  0
    1.6453   -0.5691   -1.5608 C   0  0  0  0  0  0  0  0  0  0  0  0
    2.9763   -0.8294   -1.8309 C   0  0  0  0  0  0  0  0  0  0  0  0
    3.9050   -0.7634   -0.8004 C   0  0  0  0  0  0  0  0  0  0  0  0
    3.4379   -0.4254    0.4709 C   0  0  0  0  0  0  0  0  0  0  0  0
    2.1576   -0.1607    0.7422 N   0  0  0  0  0  0  0  0  0  0  0  0
   -0.4563    0.8334    1.2042 C   0  0  0  0  0  0  0  0  0  0  0  0
   -1.7621    1.1111    1.5399 C   0  0  0  0  0  0  0  0  0  0  0  0
   -4.3463    1.5095    2.0062 H   0  0  0  0  0  0  0  0  0  0  0  0
   -3.3283   -0.6174   -0.9208 H   0  0  0  0  0  0  0  0  0  0  0  0
   -1.0062   -1.1342   -1.4999 H   0  0  0  0  0  0  0  0  0  0  0  0
    0.9055   -0.6073   -2.3469 H   0  0  0  0  0  0  0  0  0  0  0  0
    3.2823   -1.0703   -2.8322 H   0  0  0  0  0  0  0  0  0  0  0  0
    4.9491   -0.9609   -0.9668 H   0  0  0  0  0  0  0  0  0  0  0  0
    4.1220   -0.3645    1.3023 H   0  0  0  0  0  0  0  0  0  0  0  0
    0.3591    1.2294    1.7983 H   0  0  0  0  0  0  0  0  0  0  0  0
   -1.9799    1.7352    2.4009 H   0  0  0  0  0  0  0  0  0  0  0  0
  1  2  2  0
  2  3  1  0
  3  4  1  0
  4  5  2  0
  5  6  1  0
  6  7  1  0
  7  8  2  0
  8  9  1  0
  9 10  2  0
 10 11  1  0
 11 12  2  0
  6 13  2  0
 13 14  1  0
 14  3  2  0
 12  7  1  0
  2 15  1  0
  4 16  1  0
  5 17  1  0
  8 18  1  0
  9 19  1  0
 10 20  1  0
 11 21  1  0
 13 22  1  0
 14 23  1  0
M  END
$$$$

     RDKit          3D

 23 24  0  0  0  0  0  0  0  0999 V2000
    0.6197   -4.0899   -3.1943 O   0  0  0  0  0  0  0  0  0  0  0  0
   -0.3315   -3.5739   -2.6437 C   0  0  0  0  0  0  0  0  0  0  0  0
   -0.2373   -2.3994   -1.7915 C   0  0  0  0  0  0  0  0  0  0  0  0
    0.9922   -1.7756   -1.5324 C   0  0  0  0  0  0  0  0  0  0  0  0
    1.0809   -0.6660   -0.7250 C   0  0  0  0  0  0  0  0  0  0  0  0
   -0.0632   -0.1250   -0.1216 C   0  0  0  0  0  0  0  0  0  0  0  0
    0.0133    1.0685    0.7655 C   0  0  0  0  0  0  0  0  0  0  0  0
    1.1858    1.3841    1.4619 C   0  0  0  0  0  0  0  0  0  0  0  0
    1.2047    2.5089    2.2665 C   0  0  0  0  0  0  0  0  0  0  0  0
    0.0663    3.2997    2.3629 C   0  0  0  0  0  0  0  0  0  0  0  0
   -1.0594    2.9054    1.6388 C   0  0  0  0  0  0  0  0  0  0  0  0
   -1.0910    1.8178    0.8673 N   0  0  0  0  0  0  0  0  0  0  0  0
   -1.2983   -0.7336   -0.3809 C   0  0  0  0  0  0  0  0  0  0  0  0
   -1.3850   -1.8402   -1.1935 C   0  0  0  0  0  0  0  0  0  0  0  0
   -1.3181   -3.9727   -2.7707 H   0  0  0  0  0  0  0  0  0  0  0  0
    1.8923   -2.1782   -1.9868 H   0  0  0  0  0  0  0  0  0  0  0  0
    2.0401   -0.1943   -0.5626 H   0  0  0  0  0  0  0  0  0  0  0  0
    2.0548    0.7473    1.3880 H   0  0  0  0  0  0  0  0  0  0  0  0
    2.0967    2.7620    2.8088 H   0  0  0  0  0  0  0  0  0  0  0  0
    0.0427    4.1841    2.9740 H   0  0  0  0  0  0  0  0  0  0  0  0
   -1.9690    3.4844    1.6848 H   0  0  0  0  0  0  0  0  0  0  0  0
   -2.1866   -0.3142    0.0705 H   0  0  0  0  0  0  0  0  0  0  0  0
   -2.3500   -2.2993   -1.3861 H   0  0  0  0  0  0  0  0  0  0  0  0
  1  2  2  0
  2  3  1  0
  3  4  1  0
  4  5  2  0
  5  6  1  0
  6  7  1  0
  7  8  2  0
  8  9  1  0
  9 10  2  0
 10 11  1  0
 11 12  2  0
  6 13  2  0
 13 14  1  0
 14  3  2  0
 12  7  1  0
  2 15  1  0
  4 16  1  0
  5 17  1  0
  8 18  1  0
  9 19  1  0
 10 20  1  0
 11 21  1  0
 13 22  1  0
 14 23  1  0
M  END
$$$$
