
     RDKit          3D

 24 25  0  0  0  0  0  0  0  0999 V2000
   -4.2284    0.9911    0.4565 C   0  0  0  0  0  0  0  0  0  0  0  0
   -2.7751    0.6851    0.3215 C   0  0  0  0  0  0  0  0  0  0  0  0
   -1.7994    1.2624    1.1397 C   0  0  0  0  0  0  0  0  0  0  0  0
   -0.4746    0.9291    0.9818 C   0  0  0  0  0  0  0  0  0  0  0  0
   -0.1188    0.0186   -0.0181 C   0  0  0  0  0  0  0  0  0  0  0  0
    1.2961   -0.3872   -0.2378 C   0  0  0  0  0  0  0  0  0  0  0  0
    1.6584   -1.7213   -0.0484 C   0  0  0  0  0  0  0  0  0  0  0  0
    2.9761   -2.1483   -0.2018 C   0  0  0  0  0  0  0  0  0  0  0  0
    3.9261   -1.2120   -0.5608 C   0  0  0  0  0  0  0  0  0  0  0  0
    5.2070   -1.6048   -0.7008 F   0  0  0  0  0  0  0  0  0  0  0  0
    3.6120    0.1197   -0.7867 C   0  0  0  0  0  0  0  0  0  0  0  0
    2.3058    0.5038   -0.6308 C   0  0  0  0  0  0  0  0  0  0  0  0
    1.8721    2.3223   -1.0431 Br  0  0  0  0  0  0  0  0  0  0  0  0
   -1.0379   -0.5537   -0.7957 N   0  0  0  0  0  0  0  0  0  0  0  0
   -2.3076   -0.2278   -0.6370 C   0  0  0  0  0  0  0  0  0  0  0  0
   -4.7339    0.2141    1.0252 H   0  0  0  0  0  0  0  0  0  0  0  0
   -4.7136    1.0439   -0.5182 H   0  0  0  0  0  0  0  0  0  0  0  0
   -4.3893    1.9353    0.9801 H   0  0  0  0  0  0  0  0  0  0  0  0
   -2.0963    1.9741    1.9014 H   0  0  0  0  0  0  0  0  0  0  0  0
    0.3064    1.3672    1.5981 H   0  0  0  0  0  0  0  0  0  0  0  0
    0.8914   -2.4346    0.2085 H   0  0  0  0  0  0  0  0  0  0  0  0
    3.2575   -3.1836   -0.0470 H   0  0  0  0  0  0  0  0  0  0  0  0
    4.3841    0.8201   -1.0807 H   0  0  0  0  0  0  0  0  0  0  0  0
   -3.0182   -0.7137   -1.3059 H   0  0  0  0  0  0  0  0  0  0  0  0
  1  2  1  0
  2  3  2  0
  3  4  1  0
  4  5  2  0
  5  6  1  0
  6  7  1  0
  7  8  2  0
  8  9  1  0
  9 10  1  0
  9 11  2  0
 11 12  1  0
 12 13  1  0
  5 14  1  0
 14 15  2  0
 15  2  1  0
 12  6  2  0
  1 16  1  0
  1 17  1  0
  1 18  1  0
  3 19  1  0
  4 20  1  0
  7 21  1  0
  8 22  1  0
 11 23  1  0
 15 24  1  0
M  END
$$$$

     RDKit          3D

 24 25  0  0  0  0  0  0  0  0999 V2000
   -0.0286   -0.2799    4.3627 C   0  0  0  0  0  0  0  0  0  0  0  0
   -0.0197   -0.1876    2.8742 C   0  0  0  0  0  0  0  0  0  0  0  0
   -1.1281    0.2843    2.1592 C   0  0  0  0  0  0  0  0  0  0  0  0
   -1.0869    0.3717    0.7888 C   0  0  0  0  0  0  0  0  0  0  0  0
    0.0749   -0.0144    0.1191 C   0  0  0  0  0  0  0  0  0  0  0  0
    0.1275    0.0480   -1.3676 C   0  0  0  0  0  0  0  0  0  0  0  0
   -0.8237   -0.6608   -2.1116 C   0  0  0  0  0  0  0  0  0  0  0  0
   -0.8235   -0.6476   -3.5014 C   0  0  0  0  0  0  0  0  0  0  0  0
    0.1450    0.0937   -4.1429 C   0  0  0  0  0  0  0  0  0  0  0  0
    0.1651    0.1154   -5.4911 F   0  0  0  0  0  0  0  0  0  0  0  0
    1.1037    0.8218   -3.4529 C   0  0  0  0  0  0  0  0  0  0  0  0
    1.0731    0.7896   -2.0793 C   0  0  0  0  0  0  0  0  0  0  0  0
    2.3692    1.8471   -1.1609 Br  0  0  0  0  0  0  0  0  0  0  0  0
    1.1340   -0.4771    0.7815 N   0  0  0  0  0  0  0  0  0  0  0  0
    1.0921   -0.5546    2.1038 C   0  0  0  0  0  0  0  0  0  0  0  0
   -0.1433    0.7058    4.8076 H   0  0  0  0  0  0  0  0  0  0  0  0
    0.8908   -0.7319    4.7454 H   0  0  0  0  0  0  0  0  0  0  0  0
   -0.8737   -0.8708    4.7106 H   0  0  0  0  0  0  0  0  0  0  0  0
   -2.0182    0.5858    2.6990 H   0  0  0  0  0  0  0  0  0  0  0  0
   -1.9301    0.7353    0.2109 H   0  0  0  0  0  0  0  0  0  0  0  0
   -1.5735   -1.2308   -1.5869 H   0  0  0  0  0  0  0  0  0  0  0  0
   -1.5595   -1.2051   -4.0682 H   0  0  0  0  0  0  0  0  0  0  0  0
    1.8462    1.3939   -3.9956 H   0  0  0  0  0  0  0  0  0  0  0  0
    1.9872   -0.9318    2.5956 H   0  0  0  0  0  0  0  0  0  0  0  0
  1  2  1  0
  2  3  2  0
  3  4  1  0
  4  5  2  0
  5  6  1  0
  6  7  1  0
  7  8  2  0
  8  9  1  0
  9 10  1  0
  9 11  2  0
 11 12  1  0
 12 13  1  0
  5 14  1  0
 14 15  2  0
 15  2  1  0
 12  6  2  0
  1 16  1  0
  1 17  1  0
  1 18  1  0
  3 19  1  0
  4 20  1  0
  7 21  1  0
  8 22  1  0
 11 23  1  0
 15 24  1  0
M  END
$$$$

     RDKit          3D

 24 25  0  0  0  0  0  0  0  0999 V2000
    3.9791    1.7888   -0.1911 C   0  0  0  0  0  0  0  0  0  0  0  0
    2.6143    1.1858   -0.1653 C   0  0  0  0  0  0  0  0  0  0  0  0
    1.7861    1.1228   -1.2890 C   0  0  0  0  0  0  0  0  0  0  0  0
    0.5329    0.5600   -1.1996 C   0  0  0  0  0  0  0  0  0  0  0  0
    0.1096    0.0443    0.0271 C   0  0  0  0  0  0  0  0  0  0  0  0
   -1.2257   -0.5968    0.1716 C   0  0  0  0  0  0  0  0  0  0  0  0
   -1.3083   -1.9777    0.3462 C   0  0  0  0  0  0  0  0  0  0  0  0
   -2.5386   -2.6215    0.4797 C   0  0  0  0  0  0  0  0  0  0  0  0
   -3.6844   -1.8516    0.4498 C   0  0  0  0  0  0  0  0  0  0  0  0
   -4.8822   -2.4546    0.5944 F   0  0  0  0  0  0  0  0  0  0  0  0
   -3.6526   -0.4752    0.2817 C   0  0  0  0  0  0  0  0  0  0  0  0
   -2.4284    0.1230    0.1385 C   0  0  0  0  0  0  0  0  0  0  0  0
   -2.3931    2.0201   -0.0996 Br  0  0  0  0  0  0  0  0  0  0  0  0
    0.8867    0.0893    1.1081 N   0  0  0  0  0  0  0  0  0  0  0  0
    2.0844    0.6444    1.0183 C   0  0  0  0  0  0  0  0  0  0  0  0
    4.2300    2.1555   -1.1904 H   0  0  0  0  0  0  0  0  0  0  0  0
    4.0483    2.6228    0.5068 H   0  0  0  0  0  0  0  0  0  0  0  0
    4.7351    1.0659    0.1069 H   0  0  0  0  0  0  0  0  0  0  0  0
    2.1407    1.5200   -2.2327 H   0  0  0  0  0  0  0  0  0  0  0  0
   -0.1413    0.5156   -2.0479 H   0  0  0  0  0  0  0  0  0  0  0  0
   -0.3956   -2.5533    0.3808 H   0  0  0  0  0  0  0  0  0  0  0  0
   -2.5994   -3.6958    0.6031 H   0  0  0  0  0  0  0  0  0  0  0  0
   -4.5758    0.0916    0.2703 H   0  0  0  0  0  0  0  0  0  0  0  0
    2.6781    0.6767    1.9323 H   0  0  0  0  0  0  0  0  0  0  0  0
  1  2  1  0
  2  3  2  0
  3  4  1  0
  4  5  2  0
  5  6  1  0
  6  7  1  0
  7  8  2  0
  8  9  1  0
  9 10  1  0
  9 11  2  0
 11 12  1  0
 12 13  1  0
  5 14  1  0
 14 15  2  0
 15  2  1  0
 12  6  2  0
  1 16  1  0
  1 17  1  0
  1 18  1  0
  3 19  1  0
  4 20  1  0
  7 21  1  0
  8 22  1  0
 11 23  1  0
 15 24  1  0
M  END
$$$$

     RDKit          3D

 24 25  0  0  0  0  0  0  0  0999 V2000
   -3.8903    0.4019   -1.9451 C   0  0  0  0  0  0  0  0  0  0  0  0
   -2.5694    0.2743   -1.2668 C   0  0  0  0  0  0  0  0  0  0  0  0
   -2.2000    1.0970   -0.1970 C   0  0  0  0  0  0  0  0  0  0  0  0
   -0.9644    0.9596    0.3917 C   0  0  0  0  0  0  0  0  0  0  0  0
   -0.0977   -0.0286   -0.0753 C   0  0  0  0  0  0  0  0  0  0  0  0
    1.2459   -0.2044    0.5435 C   0  0  0  0  0  0  0  0  0  0  0  0
    2.2004    0.8099    0.4158 C   0  0  0  0  0  0  0  0  0  0  0  0
    3.4798    0.6806    0.9489 C   0  0  0  0  0  0  0  0  0  0  0  0
    3.7885   -0.4839    1.6203 C   0  0  0  0  0  0  0  0  0  0  0  0
    5.0269   -0.6354    2.1293 F   0  0  0  0  0  0  0  0  0  0  0  0
    2.8709   -1.5112    1.7930 C   0  0  0  0  0  0  0  0  0  0  0  0
    1.6147   -1.3462    1.2624 C   0  0  0  0  0  0  0  0  0  0  0  0
    0.3402   -2.7379    1.5601 Br  0  0  0  0  0  0  0  0  0  0  0  0
   -0.4297   -0.8169   -1.0962 N   0  0  0  0  0  0  0  0  0  0  0  0
   -1.6170   -0.6725   -1.6662 C   0  0  0  0  0  0  0  0  0  0  0  0
   -3.9679    1.3489   -2.4724 H   0  0  0  0  0  0  0  0  0  0  0  0
   -4.0498   -0.4018   -2.6686 H   0  0  0  0  0  0  0  0  0  0  0  0
   -4.6996    0.3887   -1.2175 H   0  0  0  0  0  0  0  0  0  0  0  0
   -2.8987    1.8435    0.1646 H   0  0  0  0  0  0  0  0  0  0  0  0
   -0.6425    1.5993    1.2047 H   0  0  0  0  0  0  0  0  0  0  0  0
    1.9318    1.7119   -0.1115 H   0  0  0  0  0  0  0  0  0  0  0  0
    4.2172    1.4680    0.8422 H   0  0  0  0  0  0  0  0  0  0  0  0
    3.1538   -2.4055    2.3360 H   0  0  0  0  0  0  0  0  0  0  0  0
   -1.8433   -1.3393   -2.4959 H   0  0  0  0  0  0  0  0  0  0  0  0
  1  2  1  0
  2  3  2  0
  3  4  1  0
  4  5  2  0
  5  6  1  0
  6  7  1  0
  7  8  2  0
  8  9  1  0
  9 10  1  0
  9 11  2  0
 11 12  1  0
 12 13  1  0
  5 14  1  0
 14 15  2  0
 15  2  1  0
 12  6  2  0
  1 16  1  0
  1 17  1  0
  1 18  1  0
  3 19  1  0
  4 20  1  0
  7 21  1  0
  8 22  1  0
 11 23  1  0
 15 24  1  0
M  END
$$$$

     RDKit          3D

 24 25  0  0  0  0  0  0  0  0999 V2000
   -1.9221   -3.5217   -1.7242 C   0  0  0  0  0  0  0  0  0  0  0  0
   -1.2506   -2.3297   -1.1331 C   0  0  0  0  0  0  0  0  0  0  0  0
   -0.2913   -2.4445   -0.1208 C   0  0  0  0  0  0  0  0  0  0  0  0
    0.2955   -1.3180    0.4094 C   0  0  0  0  0  0  0  0  0  0  0  0
   -0.0818   -0.0654   -0.0757 C   0  0  0  0  0  0  0  0  0  0  0  0
    0.5463    1.1714    0.4666 C   0  0  0  0  0  0  0  0  0  0  0  0
    1.9124    1.3955    0.2644 C   0  0  0  0  0  0  0  0  0  0  0  0
    2.5446    2.5381    0.7484 C   0  0  0  0  0  0  0  0  0  0  0  0
    1.7829    3.4576    1.4376 C   0  0  0  0  0  0  0  0  0  0  0  0
    2.3744    4.5763    1.9025 F   0  0  0  0  0  0  0  0  0  0  0  0
    0.4259    3.2767    1.6720 C   0  0  0  0  0  0  0  0  0  0  0  0
   -0.1647    2.1355    1.1876 C   0  0  0  0  0  0  0  0  0  0  0  0
   -2.0292    1.8926    1.5428 Br  0  0  0  0  0  0  0  0  0  0  0  0
   -0.9872    0.0637   -1.0439 N   0  0  0  0  0  0  0  0  0  0  0  0
   -1.5516   -1.0247   -1.5466 C   0  0  0  0  0  0  0  0  0  0  0  0
   -2.5608   -3.2450   -2.5668 H   0  0  0  0  0  0  0  0  0  0  0  0
   -1.1965   -4.2523   -2.0673 H   0  0  0  0  0  0  0  0  0  0  0  0
   -2.5377   -4.0264   -0.9811 H   0  0  0  0  0  0  0  0  0  0  0  0
   -0.0200   -3.4285    0.2436 H   0  0  0  0  0  0  0  0  0  0  0  0
    1.0411   -1.3736    1.1921 H   0  0  0  0  0  0  0  0  0  0  0  0
    2.4841    0.6628   -0.2837 H   0  0  0  0  0  0  0  0  0  0  0  0
    3.6036    2.7076    0.5872 H   0  0  0  0  0  0  0  0  0  0  0  0
   -0.1331    4.0219    2.2251 H   0  0  0  0  0  0  0  0  0  0  0  0
   -2.2842   -0.8698   -2.3361 H   0  0  0  0  0  0  0  0  0  0  0  0
  1  2  1  0
  2  3  2  0
  3  4  1  0
  4  5  2  0
  5  6  1  0
  6  7  1  0
  7  8  2  0
  8  9  1  0
  9 10  1  0
  9 11  2  0
 11 12  1  0
 12 13  1  0
  5 14  1  0
 14 15  2  0
 15  2  1  0
 12  6  2  0
  1 16  1  0
  1 17  1  0
  1 18  1  0
  3 19  1  0
  4 20  1  0
  7 21  1  0
  8 22  1  0
 11 23  1  0
 15 24  1  0
M  END
$$$$

     RDKit          3D

 24 25  0  0  0  0  0  0  0  0999 V2000
    2.8219    1.1090    3.1488 C   0  0  0  0  0  0  0  0  0  0  0  0
    1.8401    0.7139    2.0963 C   0  0  0  0  0  0  0  0  0  0  0  0
    0.4612    0.7098    2.3257 C   0  0  0  0  0  0  0  0  0  0  0  0
   -0.4103    0.3725    1.3176 C   0  0  0  0  0  0  0  0  0  0  0  0
    0.1019    0.0406    0.0582 C   0  0  0  0  0  0  0  0  0  0  0  0
   -0.7862   -0.3500   -1.0718 C   0  0  0  0  0  0  0  0  0  0  0  0
   -0.6119   -1.6022   -1.6666 C   0  0  0  0  0  0  0  0  0  0  0  0
   -1.4389   -2.0445   -2.6966 C   0  0  0  0  0  0  0  0  0  0  0  0
   -2.4464   -1.2051   -3.1274 C   0  0  0  0  0  0  0  0  0  0  0  0
   -3.2621   -1.6175   -4.1162 F   0  0  0  0  0  0  0  0  0  0  0  0
   -2.6468    0.0555   -2.5857 C   0  0  0  0  0  0  0  0  0  0  0  0
   -1.8098    0.4634   -1.5802 C   0  0  0  0  0  0  0  0  0  0  0  0
   -2.0499    2.2389   -0.9124 Br  0  0  0  0  0  0  0  0  0  0  0  0
    1.4127    0.0208   -0.1704 N   0  0  0  0  0  0  0  0  0  0  0  0
    2.2456    0.3476    0.8034 C   0  0  0  0  0  0  0  0  0  0  0  0
    2.4431    0.8793    4.1441 H   0  0  0  0  0  0  0  0  0  0  0  0
    3.0066    2.1828    3.1130 H   0  0  0  0  0  0  0  0  0  0  0  0
    3.7796    0.6062    3.0079 H   0  0  0  0  0  0  0  0  0  0  0  0
    0.0874    0.9622    3.3124 H   0  0  0  0  0  0  0  0  0  0  0  0
   -1.4864    0.3619    1.4689 H   0  0  0  0  0  0  0  0  0  0  0  0
    0.1919   -2.2325   -1.3196 H   0  0  0  0  0  0  0  0  0  0  0  0
   -1.3053   -3.0191   -3.1488 H   0  0  0  0  0  0  0  0  0  0  0  0
   -3.4416    0.6897   -2.9600 H   0  0  0  0  0  0  0  0  0  0  0  0
    3.3037    0.3169    0.5595 H   0  0  0  0  0  0  0  0  0  0  0  0
  1  2  1  0
  2  3  2  0
  3  4  1  0
  4  5  2  0
  5  6  1  0
  6  7  1  0
  7  8  2  0
  8  9  1  0
  9 10  1  0
  9 11  2  0
 11 12  1  0
 12 13  1  0
  5 14  1  0
 14 15  2  0
 15  2  1  0
 12  6  2  0
  1 16  1  0
  1 17  1  0
  1 18  1  0
  3 19  1  0
  4 20  1  0
  7 21  1  0
  8 22  1  0
 11 23  1  0
 15 24  1  0
M  END
$$$$

     RDKit          3D

 24 25  0  0  0  0  0  0  0  0999 V2000
    2.5520    1.7587   -3.0797 C   0  0  0  0  0  0  0  0  0  0  0  0
    1.6711    1.1487   -2.0439 C   0  0  0  0  0  0  0  0  0  0  0  0
    0.5424    0.3930   -2.3745 C   0  0  0  0  0  0  0  0  0  0  0  0
   -0.2507   -0.1383   -1.3839 C   0  0  0  0  0  0  0  0  0  0  0  0
    0.0805    0.0957   -0.0490 C   0  0  0  0  0  0  0  0  0  0  0  0
   -0.7447   -0.4956    1.0414 C   0  0  0  0  0  0  0  0  0  0  0  0
   -0.9067   -1.8865    1.0923 C   0  0  0  0  0  0  0  0  0  0  0  0
   -1.6311   -2.4997    2.1065 C   0  0  0  0  0  0  0  0  0  0  0  0
   -2.2066   -1.7013    3.0700 C   0  0  0  0  0  0  0  0  0  0  0  0
   -2.9072   -2.2830    4.0630 F   0  0  0  0  0  0  0  0  0  0  0  0
   -2.0962   -0.3180    3.0546 C   0  0  0  0  0  0  0  0  0  0  0  0
   -1.3784    0.2582    2.0350 C   0  0  0  0  0  0  0  0  0  0  0  0
   -1.3078    2.1654    1.9991 Br  0  0  0  0  0  0  0  0  0  0  0  0
    1.1537    0.8113    0.2842 N   0  0  0  0  0  0  0  0  0  0  0  0
    1.9146    1.3180   -0.6736 C   0  0  0  0  0  0  0  0  0  0  0  0
    2.5501    1.1698   -3.9964 H   0  0  0  0  0  0  0  0  0  0  0  0
    2.2011    2.7563   -3.3441 H   0  0  0  0  0  0  0  0  0  0  0  0
    3.5766    1.8536   -2.7208 H   0  0  0  0  0  0  0  0  0  0  0  0
    0.2985    0.2370   -3.4181 H   0  0  0  0  0  0  0  0  0  0  0  0
   -1.1245   -0.7374   -1.6092 H   0  0  0  0  0  0  0  0  0  0  0  0
   -0.4590   -2.4904    0.3199 H   0  0  0  0  0  0  0  0  0  0  0  0
   -1.7384   -3.5783    2.1474 H   0  0  0  0  0  0  0  0  0  0  0  0
   -2.5714    0.2709    3.8307 H   0  0  0  0  0  0  0  0  0  0  0  0
    2.7820    1.8917   -0.3508 H   0  0  0  0  0  0  0  0  0  0  0  0
  1  2  1  0
  2  3  2  0
  3  4  1  0
  4  5  2  0
  5  6  1  0
  6  7  1  0
  7  8  2  0
  8  9  1  0
  9 10  1  0
  9 11  2  0
 11 12  1  0
 12 13  1  0
  5 14  1  0
 14 15  2  0
 15  2  1  0
 12  6  2  0
  1 16  1  0
  1 17  1  0
  1 18  1  0
  3 19  1  0
  4 20  1  0
  7 21  1  0
  8 22  1  0
 11 23  1  0
 15 24  1  0
M  END
$$$$

     RDKit          3D

 24 25  0  0  0  0  0  0  0  0999 V2000
    0.9300   -0.8810    4.1754 C   0  0  0  0  0  0  0  0  0  0  0  0
    0.6254   -0.5391    2.7562 C   0  0  0  0  0  0  0  0  0  0  0  0
    1.3622    0.3952    2.0275 C   0  0  0  0  0  0  0  0  0  0  0  0
    1.0438    0.6596    0.7168 C   0  0  0  0  0  0  0  0  0  0  0  0
   -0.0335   -0.0112    0.1291 C   0  0  0  0  0  0  0  0  0  0  0  0
   -0.3999    0.2042   -1.2978 C   0  0  0  0  0  0  0  0  0  0  0  0
   -0.4039   -0.8906   -2.1643 C   0  0  0  0  0  0  0  0  0  0  0  0
   -0.6970   -0.7493   -3.5184 C   0  0  0  0  0  0  0  0  0  0  0  0
   -0.9902    0.5126   -3.9940 C   0  0  0  0  0  0  0  0  0  0  0  0
   -1.2620    0.6685   -5.3040 F   0  0  0  0  0  0  0  0  0  0  0  0
   -1.0148    1.6290   -3.1733 C   0  0  0  0  0  0  0  0  0  0  0  0
   -0.7299    1.4546   -1.8444 C   0  0  0  0  0  0  0  0  0  0  0  0
   -0.8631    2.9992   -0.7217 Br  0  0  0  0  0  0  0  0  0  0  0  0
   -0.7495   -0.9059    0.8105 N   0  0  0  0  0  0  0  0  0  0  0  0
   -0.4349   -1.1534    2.0696 C   0  0  0  0  0  0  0  0  0  0  0  0
    0.0872   -0.6350    4.8218 H   0  0  0  0  0  0  0  0  0  0  0  0
    1.8077   -0.3397    4.5380 H   0  0  0  0  0  0  0  0  0  0  0  0
    1.1135   -1.9474    4.2921 H   0  0  0  0  0  0  0  0  0  0  0  0
    2.1920    0.9046    2.5021 H   0  0  0  0  0  0  0  0  0  0  0  0
    1.6046    1.3760    0.1231 H   0  0  0  0  0  0  0  0  0  0  0  0
   -0.1761   -1.8672   -1.7671 H   0  0  0  0  0  0  0  0  0  0  0  0
   -0.6974   -1.6034   -4.1850 H   0  0  0  0  0  0  0  0  0  0  0  0
   -1.2592    2.6008   -3.5833 H   0  0  0  0  0  0  0  0  0  0  0  0
   -1.0551   -1.8811    2.5910 H   0  0  0  0  0  0  0  0  0  0  0  0
  1  2  1  0
  2  3  2  0
  3  4  1  0
  4  5  2  0
  5  6  1  0
  6  7  1  0
  7  8  2  0
  8  9  1  0
  9 10  1  0
  9 11  2  0
 11 12  1  0
 12 13  1  0
  5 14  1  0
 14 15  2  0
 15  2  1  0
 12  6  2  0
  1 16  1  0
  1 17  1  0
  1 18  1  0
  3 19  1  0
  4 20  1  0
  7 21  1  0
  8 22  1  0
 11 23  1  0
 15 24  1  0
M  END
$$$$

     RDKit          3D

 24 25  0  0  0  0  0  0  0  0999 V2000
    1.8613   -2.9526    2.6335 C   0  0  0  0  0  0  0  0  0  0  0  0
    1.2087   -1.9407    1.7540 C   0  0  0  0  0  0  0  0  0  0  0  0
    0.5509   -0.8144    2.2572 C   0  0  0  0  0  0  0  0  0  0  0  0
   -0.0299    0.0938    1.4028 C   0  0  0  0  0  0  0  0  0  0  0  0
    0.0493   -0.1204    0.0275 C   0  0  0  0  0  0  0  0  0  0  0  0
   -0.5538    0.8641   -0.9153 C   0  0  0  0  0  0  0  0  0  0  0  0
   -0.1554    2.2054   -0.8521 C   0  0  0  0  0  0  0  0  0  0  0  0
   -0.6640    3.1576   -1.7264 C   0  0  0  0  0  0  0  0  0  0  0  0
   -1.5907    2.7529   -2.6632 C   0  0  0  0  0  0  0  0  0  0  0  0
   -2.0898    3.6632   -3.5210 F   0  0  0  0  0  0  0  0  0  0  0  0
   -2.0342    1.4418   -2.7538 C   0  0  0  0  0  0  0  0  0  0  0  0
   -1.5179    0.5264   -1.8713 C   0  0  0  0  0  0  0  0  0  0  0  0
   -2.2017   -1.2512   -1.9731 Br  0  0  0  0  0  0  0  0  0  0  0  0
    0.6878   -1.1806   -0.4703 N   0  0  0  0  0  0  0  0  0  0  0  0
    1.2387   -2.0550    0.3566 C   0  0  0  0  0  0  0  0  0  0  0  0
    2.9227   -2.7462    2.7394 H   0  0  0  0  0  0  0  0  0  0  0  0
    1.4246   -2.9427    3.6334 H   0  0  0  0  0  0  0  0  0  0  0  0
    1.7635   -3.9598    2.2221 H   0  0  0  0  0  0  0  0  0  0  0  0
    0.4938   -0.6656    3.3272 H   0  0  0  0  0  0  0  0  0  0  0  0
   -0.5541    0.9685    1.7675 H   0  0  0  0  0  0  0  0  0  0  0  0
    0.5550    2.5036   -0.0975 H   0  0  0  0  0  0  0  0  0  0  0  0
   -0.3399    4.1912   -1.6808 H   0  0  0  0  0  0  0  0  0  0  0  0
   -2.7725    1.1672   -3.4982 H   0  0  0  0  0  0  0  0  0  0  0  0
    1.7476   -2.9064   -0.0981 H   0  0  0  0  0  0  0  0  0  0  0  0
  1  2  1  0
  2  3  2  0
  3  4  1  0
  4  5  2  0
  5  6  1  0
  6  7  1  0
  7  8  2  0
  8  9  1  0
  9 10  1  0
  9 11  2  0
 11 12  1  0
 12 13  1  0
  5 14  1  0
 14 15  2  0
 15  2  1  0
 12  6  2  0
  1 16  1  0
  1 17  1  0
  1 18  1  0
  3 19  1  0
  4 20  1  0
  7 21  1  0
  8 22  1  0
 11 23  1  0
 15 24  1  0
M  END
$$$$

     RDKit          3D

 24 25  0  0  0  0  0  0  0  0999 V2000
   -3.7384   -1.7399   -1.4378 C   0  0  0  0  0  0  0  0  0  0  0  0
   -2.4764   -1.1391   -0.9181 C   0  0  0  0  0  0  0  0  0  0  0  0
   -2.3790   -0.5681    0.3518 C   0  0  0  0  0  0  0  0  0  0  0  0
   -1.1916   -0.0230    0.7794 C   0  0  0  0  0  0  0  0  0  0  0  0
   -0.0862   -0.0531   -0.0744 C   0  0  0  0  0  0  0  0  0  0  0  0
    1.2283    0.5078    0.3443 C   0  0  0  0  0  0  0  0  0  0  0  0
    2.3174   -0.3481    0.5112 C   0  0  0  0  0  0  0  0  0  0  0  0
    3.5635    0.1246    0.9216 C   0  0  0  0  0  0  0  0  0  0  0  0
    3.7006    1.4785    1.1546 C   0  0  0  0  0  0  0  0  0  0  0  0
    4.8986    1.9553    1.5489 F   0  0  0  0  0  0  0  0  0  0  0  0
    2.6511    2.3706    0.9968 C   0  0  0  0  0  0  0  0  0  0  0  0
    1.4385    1.8710    0.5986 C   0  0  0  0  0  0  0  0  0  0  0  0
    0.0164    3.1252    0.3469 Br  0  0  0  0  0  0  0  0  0  0  0  0
   -0.1546   -0.6036   -1.2864 N   0  0  0  0  0  0  0  0  0  0  0  0
   -1.3063   -1.1116   -1.6954 C   0  0  0  0  0  0  0  0  0  0  0  0
   -3.6112   -2.7972   -1.6566 H   0  0  0  0  0  0  0  0  0  0  0  0
   -4.5530   -1.6362   -0.7146 H   0  0  0  0  0  0  0  0  0  0  0  0
   -4.0426   -1.2582   -2.3666 H   0  0  0  0  0  0  0  0  0  0  0  0
   -3.2484   -0.5595    0.9968 H   0  0  0  0  0  0  0  0  0  0  0  0
   -1.0924    0.4435    1.7553 H   0  0  0  0  0  0  0  0  0  0  0  0
    2.1824   -1.4003    0.3124 H   0  0  0  0  0  0  0  0  0  0  0  0
    4.4067   -0.5415    1.0540 H   0  0  0  0  0  0  0  0  0  0  0  0
    2.8051    3.4268    1.1815 H   0  0  0  0  0  0  0  0  0  0  0  0
   -1.3283   -1.5238   -2.7042 H   0  0  0  0  0  0  0  0  0  0  0  0
  1  2  1  0
  2  3  2  0
  3  4  1  0
  4  5  2  0
  5  6  1  0
  6  7  1  0
  7  8  2  0
  8  9  1  0
  9 10  1  0
  9 11  2  0
 11 12  1  0
 12 13  1  0
  5 14  1  0
 14 15  2  0
 15  2  1  0
 12  6  2  0
  1 16  1  0
  1 17  1  0
  1 18  1  0
  3 19  1  0
  4 20  1  0
  7 21  1  0
  8 22  1  0
 11 23  1  0
 15 24  1  0
M  END
$$$$

     RDKit          3D

 24 25  0  0  0  0  0  0  0  0999 V2000
    2.9899   -1.0847   -2.9979 C   0  0  0  0  0  0  0  0  0  0  0  0
    1.9531   -0.7109   -1.9935 C   0  0  0  0  0  0  0  0  0  0  0  0
    0.9257   -1.5890   -1.6283 C   0  0  0  0  0  0  0  0  0  0  0  0
   -0.0093   -1.2158   -0.6926 C   0  0  0  0  0  0  0  0  0  0  0  0
    0.0803    0.0485   -0.1089 C   0  0  0  0  0  0  0  0  0  0  0  0
   -0.8918    0.4534    0.9452 C   0  0  0  0  0  0  0  0  0  0  0  0
   -0.9876   -0.3212    2.1075 C   0  0  0  0  0  0  0  0  0  0  0  0
   -1.8664    0.0067    3.1335 C   0  0  0  0  0  0  0  0  0  0  0  0
   -2.6537    1.1268    2.9770 C   0  0  0  0  0  0  0  0  0  0  0  0
   -3.5052    1.4675    3.9633 F   0  0  0  0  0  0  0  0  0  0  0  0
   -2.6056    1.9216    1.8401 C   0  0  0  0  0  0  0  0  0  0  0  0
   -1.7328    1.5647    0.8426 C   0  0  0  0  0  0  0  0  0  0  0  0
   -1.7158    2.6557   -0.7248 Br  0  0  0  0  0  0  0  0  0  0  0  0
    1.0510    0.8960   -0.4425 N   0  0  0  0  0  0  0  0  0  0  0  0
    1.9467    0.5346   -1.3503 C   0  0  0  0  0  0  0  0  0  0  0  0
    2.5304   -1.4112   -3.9293 H   0  0  0  0  0  0  0  0  0  0  0  0
    3.6595   -0.2481   -3.2158 H   0  0  0  0  0  0  0  0  0  0  0  0
    3.5918   -1.9182   -2.6450 H   0  0  0  0  0  0  0  0  0  0  0  0
    0.8736   -2.5651   -2.0971 H   0  0  0  0  0  0  0  0  0  0  0  0
   -0.8127   -1.8777   -0.3919 H   0  0  0  0  0  0  0  0  0  0  0  0
   -0.3593   -1.1929    2.2018 H   0  0  0  0  0  0  0  0  0  0  0  0
   -1.9313   -0.5947    4.0331 H   0  0  0  0  0  0  0  0  0  0  0  0
   -3.2479    2.7900    1.7594 H   0  0  0  0  0  0  0  0  0  0  0  0
    2.7173    1.2640   -1.5856 H   0  0  0  0  0  0  0  0  0  0  0  0
  1  2  1  0
  2  3  2  0
  3  4  1  0
  4  5  2  0
  5  6  1  0
  6  7  1  0
  7  8  2  0
  8  9  1  0
  9 10  1  0
  9 11  2  0
 11 12  1  0
 12 13  1  0
  5 14  1  0
 14 15  2  0
 15  2  1  0
 12  6  2  0
  1 16  1  0
  1 17  1  0
  1 18  1  0
  3 19  1  0
  4 20  1  0
  7 21  1  0
  8 22  1  0
 11 23  1  0
 15 24  1  0
M  END
$$$$

     RDKit          3D

 24 25  0  0  0  0  0  0  0  0999 V2000
   -0.9589   -1.7572    3.8813 C   0  0  0  0  0  0  0  0  0  0  0  0
   -0.6709   -1.1452    2.5511 C   0  0  0  0  0  0  0  0  0  0  0  0
   -1.5445   -0.2618    1.9140 C   0  0  0  0  0  0  0  0  0  0  0  0
   -1.2180    0.2789    0.6916 C   0  0  0  0  0  0  0  0  0  0  0  0
   -0.0028   -0.0732    0.0989 C   0  0  0  0  0  0  0  0  0  0  0  0
    0.4101    0.4944   -1.2133 C   0  0  0  0  0  0  0  0  0  0  0  0
    1.5181    1.3410   -1.2770 C   0  0  0  0  0  0  0  0  0  0  0  0
    1.9341    1.9106   -2.4800 C   0  0  0  0  0  0  0  0  0  0  0  0
    1.2177    1.6126   -3.6227 C   0  0  0  0  0  0  0  0  0  0  0  0
    1.6075    2.1533   -4.7956 F   0  0  0  0  0  0  0  0  0  0  0  0
    0.1134    0.7730   -3.6108 C   0  0  0  0  0  0  0  0  0  0  0  0
   -0.2650    0.2274   -2.4122 C   0  0  0  0  0  0  0  0  0  0  0  0
   -1.7501   -0.9788   -2.4251 Br  0  0  0  0  0  0  0  0  0  0  0  0
    0.8477   -0.9076    0.6945 N   0  0  0  0  0  0  0  0  0  0  0  0
    0.5216   -1.4277    1.8662 C   0  0  0  0  0  0  0  0  0  0  0  0
   -0.8670   -2.8424    3.8405 H   0  0  0  0  0  0  0  0  0  0  0  0
   -0.2497   -1.4090    4.6306 H   0  0  0  0  0  0  0  0  0  0  0  0
   -1.9648   -1.5071    4.2274 H   0  0  0  0  0  0  0  0  0  0  0  0
   -2.4797   -0.0025    2.3936 H   0  0  0  0  0  0  0  0  0  0  0  0
   -1.8823    0.9608    0.1676 H   0  0  0  0  0  0  0  0  0  0  0  0
    2.0660    1.5493   -0.3699 H   0  0  0  0  0  0  0  0  0  0  0  0
    2.7943    2.5691   -2.5279 H   0  0  0  0  0  0  0  0  0  0  0  0
   -0.4164    0.5593   -4.5315 H   0  0  0  0  0  0  0  0  0  0  0  0
    1.2398   -2.1172    2.3088 H   0  0  0  0  0  0  0  0  0  0  0  0
  1  2  1  0
  2  3  2  0
  3  4  1  0
  4  5  2  0
  5  6  1  0
  6  7  1  0
  7  8  2  0
  8  9  1  0
  9 10  1  0
  9 11  2  0
 11 12  1  0
 12 13  1  0
  5 14  1  0
 14 15  2  0
 15  2  1  0
 12  6  2  0
  1 16  1  0
  1 17  1  0
  1 18  1  0
  3 19  1  0
  4 20  1  0
  7 21  1  0
  8 22  1  0
 11 23  1  0
 15 24  1  0
M  END
$$$$
