
     RDKit          3D

 27 29  0  0  0  0  0  0  0  0999 V2000
    0.4563   -4.1330    2.0911 C   0  0  0  0  0  0  0  0  0  0  0  0
   -0.4302   -3.8520    1.0455 C   0  0  0  0  0  0  0  0  0  0  0  0
   -0.5119   -2.5700    0.5155 C   0  0  0  0  0  0  0  0  0  0  0  0
    0.2867   -1.5377    1.0252 C   0  0  0  0  0  0  0  0  0  0  0  0
    0.1773   -0.1591    0.4482 C   0  0  0  0  0  0  0  0  0  0  0  0
    0.6950    0.9606    1.1400 C   0  0  0  0  0  0  0  0  0  0  0  0
    0.6205    2.1985    0.5871 C   0  0  0  0  0  0  0  0  0  0  0  0
    0.0104    2.3562   -0.6760 C   0  0  0  0  0  0  0  0  0  0  0  0
   -0.1056    3.6004   -1.3472 C   0  0  0  0  0  0  0  0  0  0  0  0
   -0.7186    3.6796   -2.5682 C   0  0  0  0  0  0  0  0  0  0  0  0
   -1.2464    2.5216   -3.1803 C   0  0  0  0  0  0  0  0  0  0  0  0
   -1.1522    1.2863   -2.5626 C   0  0  0  0  0  0  0  0  0  0  0  0
   -0.5162    1.1760   -1.2955 C   0  0  0  0  0  0  0  0  0  0  0  0
   -0.4267   -0.0457   -0.7161 N   0  0  0  0  0  0  0  0  0  0  0  0
    1.1790   -1.8324    2.0636 C   0  0  0  0  0  0  0  0  0  0  0  0
    1.2604   -3.1183    2.5964 C   0  0  0  0  0  0  0  0  0  0  0  0
    0.5126   -5.1306    2.5019 H   0  0  0  0  0  0  0  0  0  0  0  0
   -1.0542   -4.6345    0.6458 H   0  0  0  0  0  0  0  0  0  0  0  0
   -1.1980   -2.3662   -0.2906 H   0  0  0  0  0  0  0  0  0  0  0  0
    1.1388    0.8243    2.1139 H   0  0  0  0  0  0  0  0  0  0  0  0
    1.0203    3.0672    1.0950 H   0  0  0  0  0  0  0  0  0  0  0  0
    0.3045    4.4711   -0.8646 H   0  0  0  0  0  0  0  0  0  0  0  0
   -0.7993    4.6346   -3.0702 H   0  0  0  0  0  0  0  0  0  0  0  0
   -1.7301    2.5959   -4.1405 H   0  0  0  0  0  0  0  0  0  0  0  0
   -1.5491    0.3931   -3.0168 H   0  0  0  0  0  0  0  0  0  0  0  0
    1.8244   -1.0694    2.4640 H   0  0  0  0  0  0  0  0  0  0  0  0
    1.9523   -3.3166    3.3955 H   0  0  0  0  0  0  0  0  0  0  0  0
  1  2  2  0
  2  3  1  0
  3  4  2  0
  4  5  1  0
  5  6  1  0
  6  7  2  0
  7  8  1  0
  8  9  2  0
  9 10  1  0
 10 11  2  0
 11 12  1  0
 12 13  2  0
 13 14  1  0
  4 15  1  0
 15 16  2  0
 16  1  1  0
 14  5  2  0
 13  8  1  0
  1 17  1  0
  2 18  1  0
  3 19  1  0
  6 20  1  0
  7 21  1  0
  9 22  1  0
 10 23  1  0
 11 24  1  0
 12 25  1  0
 15 26  1  0
 16 27  1  0
M  END
$$$$

     RDKit          3D

 27 29  0  0  0  0  0  0  0  0999 V2000
   -0.6167    1.7285   -4.2797 C   0  0  0  0  0  0  0  0  0  0  0  0
   -1.6316    1.2307   -3.4542 C   0  0  0  0  0  0  0  0  0  0  0  0
   -1.3311    0.7256   -2.1944 C   0  0  0  0  0  0  0  0  0  0  0  0
   -0.0061    0.6922   -1.7392 C   0  0  0  0  0  0  0  0  0  0  0  0
    0.2985    0.1130   -0.3913 C   0  0  0  0  0  0  0  0  0  0  0  0
    1.6220   -0.2323   -0.0337 C   0  0  0  0  0  0  0  0  0  0  0  0
    1.8861   -0.7468    1.1943 C   0  0  0  0  0  0  0  0  0  0  0  0
    0.8271   -0.9401    2.1060 C   0  0  0  0  0  0  0  0  0  0  0  0
    0.9990   -1.4710    3.4108 C   0  0  0  0  0  0  0  0  0  0  0  0
   -0.0747   -1.6328    4.2432 C   0  0  0  0  0  0  0  0  0  0  0  0
   -1.3697   -1.2693    3.8150 C   0  0  0  0  0  0  0  0  0  0  0  0
   -1.5832   -0.7508    2.5487 C   0  0  0  0  0  0  0  0  0  0  0  0
   -0.4855   -0.5751    1.6626 C   0  0  0  0  0  0  0  0  0  0  0  0
   -0.7163   -0.0653    0.4294 N   0  0  0  0  0  0  0  0  0  0  0  0
    1.0008    1.2072   -2.5664 C   0  0  0  0  0  0  0  0  0  0  0  0
    0.6977    1.7192   -3.8279 C   0  0  0  0  0  0  0  0  0  0  0  0
   -0.8553    2.1156   -5.2602 H   0  0  0  0  0  0  0  0  0  0  0  0
   -2.6543    1.2382   -3.7964 H   0  0  0  0  0  0  0  0  0  0  0  0
   -2.1227    0.3522   -1.5631 H   0  0  0  0  0  0  0  0  0  0  0  0
    2.4181   -0.1001   -0.7473 H   0  0  0  0  0  0  0  0  0  0  0  0
    2.8925   -1.0158    1.4859 H   0  0  0  0  0  0  0  0  0  0  0  0
    1.9947   -1.7409    3.7146 H   0  0  0  0  0  0  0  0  0  0  0  0
    0.0669   -2.0399    5.2367 H   0  0  0  0  0  0  0  0  0  0  0  0
   -2.2064   -1.3938    4.4820 H   0  0  0  0  0  0  0  0  0  0  0  0
   -2.5680   -0.4767    2.2088 H   0  0  0  0  0  0  0  0  0  0  0  0
    2.0278    1.2226   -2.2403 H   0  0  0  0  0  0  0  0  0  0  0  0
    1.4904    2.1059   -4.4438 H   0  0  0  0  0  0  0  0  0  0  0  0
  1  2  2  0
  2  3  1  0
  3  4  2  0
  4  5  1  0
  5  6  1  0
  6  7  2  0
  7  8  1  0
  8  9  2  0
  9 10  1  0
 10 11  2  0
 11 12  1  0
 12 13  2  0
 13 14  1  0
  4 15  1  0
 15 16  2  0
 16  1  1  0
 14  5  2  0
 13  8  1  0
  1 17  1  0
  2 18  1  0
  3 19  1  0
  6 20  1  0
  7 21  1  0
  9 22  1  0
 10 23  1  0
 11 24  1  0
 12 25  1  0
 15 26  1  0
 16 27  1  0
M  END
$$$$

     RDKit          3D

 27 29  0  0  0  0  0  0  0  0999 V2000
    1.5332   -4.2098   -1.2489 C   0  0  0  0  0  0  0  0  0  0  0  0
    2.3504   -3.1777   -0.7706 C   0  0  0  0  0  0  0  0  0  0  0  0
    1.7920   -1.9676   -0.3744 C   0  0  0  0  0  0  0  0  0  0  0  0
    0.4075   -1.7699   -0.4388 C   0  0  0  0  0  0  0  0  0  0  0  0
   -0.1801   -0.4683    0.0064 C   0  0  0  0  0  0  0  0  0  0  0  0
   -1.5071   -0.4096    0.4912 C   0  0  0  0  0  0  0  0  0  0  0  0
   -2.0336    0.7809    0.8734 C   0  0  0  0  0  0  0  0  0  0  0  0
   -1.2484    1.9512    0.7802 C   0  0  0  0  0  0  0  0  0  0  0  0
   -1.7134    3.2426    1.1366 C   0  0  0  0  0  0  0  0  0  0  0  0
   -0.8966    4.3343    1.0183 C   0  0  0  0  0  0  0  0  0  0  0  0
    0.4231    4.1920    0.5373 C   0  0  0  0  0  0  0  0  0  0  0  0
    0.9163    2.9505    0.1728 C   0  0  0  0  0  0  0  0  0  0  0  0
    0.0894    1.8009    0.2878 C   0  0  0  0  0  0  0  0  0  0  0  0
    0.5938    0.5950   -0.0693 N   0  0  0  0  0  0  0  0  0  0  0  0
   -0.4017   -2.7980   -0.9324 C   0  0  0  0  0  0  0  0  0  0  0  0
    0.1574   -4.0134   -1.3297 C   0  0  0  0  0  0  0  0  0  0  0  0
    1.9692   -5.1511   -1.5513 H   0  0  0  0  0  0  0  0  0  0  0  0
    3.4172   -3.3251   -0.7068 H   0  0  0  0  0  0  0  0  0  0  0  0
    2.4257   -1.1709   -0.0176 H   0  0  0  0  0  0  0  0  0  0  0  0
   -2.0870   -1.3181    0.5642 H   0  0  0  0  0  0  0  0  0  0  0  0
   -3.0471    0.8554    1.2508 H   0  0  0  0  0  0  0  0  0  0  0  0
   -2.7246    3.3280    1.4960 H   0  0  0  0  0  0  0  0  0  0  0  0
   -1.2629    5.3141    1.2963 H   0  0  0  0  0  0  0  0  0  0  0  0
    1.0572    5.0594    0.4427 H   0  0  0  0  0  0  0  0  0  0  0  0
    1.9229    2.8270   -0.1942 H   0  0  0  0  0  0  0  0  0  0  0  0
   -1.4689   -2.6596   -1.0144 H   0  0  0  0  0  0  0  0  0  0  0  0
   -0.4838   -4.7922   -1.7054 H   0  0  0  0  0  0  0  0  0  0  0  0
  1  2  2  0
  2  3  1  0
  3  4  2  0
  4  5  1  0
  5  6  1  0
  6  7  2  0
  7  8  1  0
  8  9  2  0
  9 10  1  0
 10 11  2  0
 11 12  1  0
 12 13  2  0
 13 14  1  0
  4 15  1  0
 15 16  2  0
 16  1  1  0
 14  5  2  0
 13  8  1  0
  1 17  1  0
  2 18  1  0
  3 19  1  0
  6 20  1  0
  7 21  1  0
  9 22  1  0
 10 23  1  0
 11 24  1  0
 12 25  1  0
 15 26  1  0
 16 27  1  0
M  END
$$$$

     RDKit          3D

 27 29  0  0  0  0  0  0  0  0999 V2000
   -0.4015    4.5904   -0.6367 C   0  0  0  0  0  0  0  0  0  0  0  0
   -1.4831    3.7064   -0.5377 C   0  0  0  0  0  0  0  0  0  0  0  0
   -1.2643    2.3410   -0.3919 C   0  0  0  0  0  0  0  0  0  0  0  0
    0.0392    1.8314   -0.3643 C   0  0  0  0  0  0  0  0  0  0  0  0
    0.2594    0.3593   -0.2310 C   0  0  0  0  0  0  0  0  0  0  0  0
    1.4114   -0.2441   -0.7844 C   0  0  0  0  0  0  0  0  0  0  0  0
    1.6069   -1.5806   -0.6488 C   0  0  0  0  0  0  0  0  0  0  0  0
    0.6546   -2.3534    0.0519 C   0  0  0  0  0  0  0  0  0  0  0  0
    0.7741   -3.7518    0.2586 C   0  0  0  0  0  0  0  0  0  0  0  0
   -0.1819   -4.4365    0.9613 C   0  0  0  0  0  0  0  0  0  0  0  0
   -1.3050   -3.7589    1.4855 C   0  0  0  0  0  0  0  0  0  0  0  0
   -1.4671   -2.3962    1.2983 C   0  0  0  0  0  0  0  0  0  0  0  0
   -0.4875   -1.6619    0.5765 C   0  0  0  0  0  0  0  0  0  0  0  0
   -0.6614   -0.3278    0.4105 N   0  0  0  0  0  0  0  0  0  0  0  0
    1.1163    2.7194   -0.4591 C   0  0  0  0  0  0  0  0  0  0  0  0
    0.8977    4.0900   -0.5967 C   0  0  0  0  0  0  0  0  0  0  0  0
   -0.5735    5.6511   -0.7464 H   0  0  0  0  0  0  0  0  0  0  0  0
   -2.4935    4.0840   -0.5708 H   0  0  0  0  0  0  0  0  0  0  0  0
   -2.1015    1.6644   -0.3032 H   0  0  0  0  0  0  0  0  0  0  0  0
    2.1267    0.3647   -1.3161 H   0  0  0  0  0  0  0  0  0  0  0  0
    2.4797   -2.0689   -1.0647 H   0  0  0  0  0  0  0  0  0  0  0  0
    1.6367   -4.2480   -0.1543 H   0  0  0  0  0  0  0  0  0  0  0  0
   -0.0758   -5.5027    1.1206 H   0  0  0  0  0  0  0  0  0  0  0  0
   -2.0510   -4.3054    2.0417 H   0  0  0  0  0  0  0  0  0  0  0  0
   -2.3250   -1.8699    1.6840 H   0  0  0  0  0  0  0  0  0  0  0  0
    2.1285    2.3487   -0.4149 H   0  0  0  0  0  0  0  0  0  0  0  0
    1.7410    4.7554   -0.6677 H   0  0  0  0  0  0  0  0  0  0  0  0
  1  2  2  0
  2  3  1  0
  3  4  2  0
  4  5  1  0
  5  6  1  0
  6  7  2  0
  7  8  1  0
  8  9  2  0
  9 10  1  0
 10 11  2  0
 11 12  1  0
 12 13  2  0
 13 14  1  0
  4 15  1  0
 15 16  2  0
 16  1  1  0
 14  5  2  0
 13  8  1  0
  1 17  1  0
  2 18  1  0
  3 19  1  0
  6 20  1  0
  7 21  1  0
  9 22  1  0
 10 23  1  0
 11 24  1  0
 12 25  1  0
 15 26  1  0
 16 27  1  0
M  END
$$$$

     RDKit          3D

 27 29  0  0  0  0  0  0  0  0999 V2000
   -3.6718    1.5472   -2.4120 C   0  0  0  0  0  0  0  0  0  0  0  0
   -2.6239    0.7779   -2.9302 C   0  0  0  0  0  0  0  0  0  0  0  0
   -1.5817    0.3666   -2.1099 C   0  0  0  0  0  0  0  0  0  0  0  0
   -1.5604    0.7157   -0.7517 C   0  0  0  0  0  0  0  0  0  0  0  0
   -0.4241    0.2575    0.1147 C   0  0  0  0  0  0  0  0  0  0  0  0
   -0.4281    0.4990    1.5082 C   0  0  0  0  0  0  0  0  0  0  0  0
    0.6043    0.0718    2.2778 C   0  0  0  0  0  0  0  0  0  0  0  0
    1.6808   -0.6150    1.6771 C   0  0  0  0  0  0  0  0  0  0  0  0
    2.8044   -1.1012    2.3950 C   0  0  0  0  0  0  0  0  0  0  0  0
    3.8151   -1.7557    1.7457 C   0  0  0  0  0  0  0  0  0  0  0  0
    3.7531   -1.9601    0.3503 C   0  0  0  0  0  0  0  0  0  0  0  0
    2.6742   -1.5050   -0.3882 C   0  0  0  0  0  0  0  0  0  0  0  0
    1.6125   -0.8164    0.2607 C   0  0  0  0  0  0  0  0  0  0  0  0
    0.5638   -0.3799   -0.4801 N   0  0  0  0  0  0  0  0  0  0  0  0
   -2.6097    1.4926   -0.2471 C   0  0  0  0  0  0  0  0  0  0  0  0
   -3.6592    1.9005   -1.0684 C   0  0  0  0  0  0  0  0  0  0  0  0
   -4.4840    1.8618   -3.0514 H   0  0  0  0  0  0  0  0  0  0  0  0
   -2.6266    0.5019   -3.9724 H   0  0  0  0  0  0  0  0  0  0  0  0
   -0.7806   -0.2231   -2.5191 H   0  0  0  0  0  0  0  0  0  0  0  0
   -1.2538    1.0287    1.9595 H   0  0  0  0  0  0  0  0  0  0  0  0
    0.6190    0.2497    3.3454 H   0  0  0  0  0  0  0  0  0  0  0  0
    2.8287   -0.9365    3.4568 H   0  0  0  0  0  0  0  0  0  0  0  0
    4.6661   -2.1216    2.3028 H   0  0  0  0  0  0  0  0  0  0  0  0
    4.5575   -2.4729   -0.1493 H   0  0  0  0  0  0  0  0  0  0  0  0
    2.6101   -1.6622   -1.4506 H   0  0  0  0  0  0  0  0  0  0  0  0
   -2.6291    1.7896    0.7879 H   0  0  0  0  0  0  0  0  0  0  0  0
   -4.4563    2.4892   -0.6513 H   0  0  0  0  0  0  0  0  0  0  0  0
  1  2  2  0
  2  3  1  0
  3  4  2  0
  4  5  1  0
  5  6  1  0
  6  7  2  0
  7  8  1  0
  8  9  2  0
  9 10  1  0
 10 11  2  0
 11 12  1  0
 12 13  2  0
 13 14  1  0
  4 15  1  0
 15 16  2  0
 16  1  1  0
 14  5  2  0
 13  8  1  0
  1 17  1  0
  2 18  1  0
  3 19  1  0
  6 20  1  0
  7 21  1  0
  9 22  1  0
 10 23  1  0
 11 24  1  0
 12 25  1  0
 15 26  1  0
 16 27  1  0
M  END
$$$$

     RDKit          3D

 27 29  0  0  0  0  0  0  0  0999 V2000
    3.1535   -0.7173   -3.3481 C   0  0  0  0  0  0  0  0  0  0  0  0
    3.3610   -0.9560   -1.9838 C   0  0  0  0  0  0  0  0  0  0  0  0
    2.3345   -0.7495   -1.0697 C   0  0  0  0  0  0  0  0  0  0  0  0
    1.0757   -0.3062   -1.4995 C   0  0  0  0  0  0  0  0  0  0  0  0
   -0.0225   -0.0902   -0.5032 C   0  0  0  0  0  0  0  0  0  0  0  0
   -1.3710    0.0224   -0.9156 C   0  0  0  0  0  0  0  0  0  0  0  0
   -2.3441    0.2553    0.0029 C   0  0  0  0  0  0  0  0  0  0  0  0
   -1.9992    0.3784    1.3655 C   0  0  0  0  0  0  0  0  0  0  0  0
   -2.9405    0.6380    2.3960 C   0  0  0  0  0  0  0  0  0  0  0  0
   -2.5335    0.7404    3.6983 C   0  0  0  0  0  0  0  0  0  0  0  0
   -1.1703    0.5911    4.0346 C   0  0  0  0  0  0  0  0  0  0  0  0
   -0.2192    0.3426    3.0598 C   0  0  0  0  0  0  0  0  0  0  0  0
   -0.6143    0.2339    1.6993 C   0  0  0  0  0  0  0  0  0  0  0  0
    0.3322   -0.0104    0.7619 N   0  0  0  0  0  0  0  0  0  0  0  0
    0.8813   -0.0607   -2.8636 C   0  0  0  0  0  0  0  0  0  0  0  0
    1.9104   -0.2700   -3.7812 C   0  0  0  0  0  0  0  0  0  0  0  0
    3.9519   -0.8776   -4.0570 H   0  0  0  0  0  0  0  0  0  0  0  0
    4.3209   -1.3063   -1.6404 H   0  0  0  0  0  0  0  0  0  0  0  0
    2.5107   -0.9257   -0.0210 H   0  0  0  0  0  0  0  0  0  0  0  0
   -1.6271   -0.0812   -1.9584 H   0  0  0  0  0  0  0  0  0  0  0  0
   -3.3823    0.3537   -0.2874 H   0  0  0  0  0  0  0  0  0  0  0  0
   -3.9737    0.7474    2.1170 H   0  0  0  0  0  0  0  0  0  0  0  0
   -3.2590    0.9362    4.4767 H   0  0  0  0  0  0  0  0  0  0  0  0
   -0.8615    0.6736    5.0642 H   0  0  0  0  0  0  0  0  0  0  0  0
    0.8233    0.2234    3.3019 H   0  0  0  0  0  0  0  0  0  0  0  0
   -0.0692    0.2930   -3.2244 H   0  0  0  0  0  0  0  0  0  0  0  0
    1.7323   -0.0781   -4.8248 H   0  0  0  0  0  0  0  0  0  0  0  0
  1  2  2  0
  2  3  1  0
  3  4  2  0
  4  5  1  0
  5  6  1  0
  6  7  2  0
  7  8  1  0
  8  9  2  0
  9 10  1  0
 10 11  2  0
 11 12  1  0
 12 13  2  0
 13 14  1  0
  4 15  1  0
 15 16  2  0
 16  1  1  0
 14  5  2  0
 13  8  1  0
  1 17  1  0
  2 18  1  0
  3 19  1  0
  6 20  1  0
  7 21  1  0
  9 22  1  0
 10 23  1  0
 11 24  1  0
 12 25  1  0
 15 26  1  0
 16 27  1  0
M  END
$$$$

     RDKit          3D

 27 29  0  0  0  0  0  0  0  0999 V2000
    3.8055   -2.6476    0.4280 C   0  0  0  0  0  0  0  0  0  0  0  0
    2.4992   -3.0383    0.7418 C   0  0  0  0  0  0  0  0  0  0  0  0
    1.4425   -2.1531    0.5814 C   0  0  0  0  0  0  0  0  0  0  0  0
    1.6657   -0.8528    0.1080 C   0  0  0  0  0  0  0  0  0  0  0  0
    0.5056    0.0846   -0.0463 C   0  0  0  0  0  0  0  0  0  0  0  0
    0.7051    1.4520   -0.3480 C   0  0  0  0  0  0  0  0  0  0  0  0
   -0.3606    2.2834   -0.4804 C   0  0  0  0  0  0  0  0  0  0  0  0
   -1.6655    1.7735   -0.3123 C   0  0  0  0  0  0  0  0  0  0  0  0
   -2.8387    2.5652   -0.4232 C   0  0  0  0  0  0  0  0  0  0  0  0
   -4.0738    2.0022   -0.2554 C   0  0  0  0  0  0  0  0  0  0  0  0
   -4.1986    0.6243    0.0298 C   0  0  0  0  0  0  0  0  0  0  0  0
   -3.0788   -0.1813    0.1572 C   0  0  0  0  0  0  0  0  0  0  0  0
   -1.7828    0.3789   -0.0100 C   0  0  0  0  0  0  0  0  0  0  0  0
   -0.6982   -0.4243    0.1215 N   0  0  0  0  0  0  0  0  0  0  0  0
    2.9762   -0.4739   -0.2081 C   0  0  0  0  0  0  0  0  0  0  0  0
    4.0379   -1.3640   -0.0503 C   0  0  0  0  0  0  0  0  0  0  0  0
    4.6252   -3.3389    0.5581 H   0  0  0  0  0  0  0  0  0  0  0  0
    2.3089   -4.0347    1.1058 H   0  0  0  0  0  0  0  0  0  0  0  0
    0.4406   -2.4671    0.8207 H   0  0  0  0  0  0  0  0  0  0  0  0
    1.7084    1.8319   -0.4647 H   0  0  0  0  0  0  0  0  0  0  0  0
   -0.2325    3.3325   -0.7134 H   0  0  0  0  0  0  0  0  0  0  0  0
   -2.7186    3.6109   -0.6425 H   0  0  0  0  0  0  0  0  0  0  0  0
   -4.9617    2.6139   -0.3437 H   0  0  0  0  0  0  0  0  0  0  0  0
   -5.1759    0.1911    0.1550 H   0  0  0  0  0  0  0  0  0  0  0  0
   -3.1570   -1.2323    0.3788 H   0  0  0  0  0  0  0  0  0  0  0  0
    3.1876    0.5107   -0.5862 H   0  0  0  0  0  0  0  0  0  0  0  0
    5.0343   -1.0471   -0.3014 H   0  0  0  0  0  0  0  0  0  0  0  0
  1  2  2  0
  2  3  1  0
  3  4  2  0
  4  5  1  0
  5  6  1  0
  6  7  2  0
  7  8  1  0
  8  9  2  0
  9 10  1  0
 10 11  2  0
 11 12  1  0
 12 13  2  0
 13 14  1  0
  4 15  1  0
 15 16  2  0
 16  1  1  0
 14  5  2  0
 13  8  1  0
  1 17  1  0
  2 18  1  0
  3 19  1  0
  6 20  1  0
  7 21  1  0
  9 22  1  0
 10 23  1  0
 11 24  1  0
 12 25  1  0
 15 26  1  0
 16 27  1  0
M  END
$$$$

     RDKit          3D

 27 29  0  0  0  0  0  0  0  0999 V2000
   -2.9488    2.9451   -2.0788 C   0  0  0  0  0  0  0  0  0  0  0  0
   -3.1122    1.5559   -2.0166 C   0  0  0  0  0  0  0  0  0  0  0  0
   -2.1596    0.7633   -1.3868 C   0  0  0  0  0  0  0  0  0  0  0  0
   -1.0172    1.3412   -0.8159 C   0  0  0  0  0  0  0  0  0  0  0  0
    0.0161    0.4676   -0.1709 C   0  0  0  0  0  0  0  0  0  0  0  0
    1.3353    0.9401    0.0270 C   0  0  0  0  0  0  0  0  0  0  0  0
    2.2624    0.1431    0.6145 C   0  0  0  0  0  0  0  0  0  0  0  0
    1.8978   -1.1567    1.0233 C   0  0  0  0  0  0  0  0  0  0  0  0
    2.7931   -2.0619    1.6485 C   0  0  0  0  0  0  0  0  0  0  0  0
    2.3711   -3.3073    2.0265 C   0  0  0  0  0  0  0  0  0  0  0  0
    1.0381   -3.7111    1.7928 C   0  0  0  0  0  0  0  0  0  0  0  0
    0.1336   -2.8622    1.1792 C   0  0  0  0  0  0  0  0  0  0  0  0
    0.5455   -1.5614    0.7810 C   0  0  0  0  0  0  0  0  0  0  0  0
   -0.3578   -0.7439    0.1836 N   0  0  0  0  0  0  0  0  0  0  0  0
   -0.8723    2.7329   -0.8655 C   0  0  0  0  0  0  0  0  0  0  0  0
   -1.8277    3.5290   -1.4989 C   0  0  0  0  0  0  0  0  0  0  0  0
   -3.6878    3.5563   -2.5764 H   0  0  0  0  0  0  0  0  0  0  0  0
   -3.9822    1.0961   -2.4577 H   0  0  0  0  0  0  0  0  0  0  0  0
   -2.2950   -0.3074   -1.3352 H   0  0  0  0  0  0  0  0  0  0  0  0
    1.6031    1.9306   -0.3044 H   0  0  0  0  0  0  0  0  0  0  0  0
    3.2773    0.4834    0.7753 H   0  0  0  0  0  0  0  0  0  0  0  0
    3.8054   -1.7339    1.8051 H   0  0  0  0  0  0  0  0  0  0  0  0
    3.0612   -3.9881    2.5063 H   0  0  0  0  0  0  0  0  0  0  0  0
    0.7160   -4.6943    2.0922 H   0  0  0  0  0  0  0  0  0  0  0  0
   -0.8828   -3.1624    0.9892 H   0  0  0  0  0  0  0  0  0  0  0  0
   -0.0237    3.2106   -0.4052 H   0  0  0  0  0  0  0  0  0  0  0  0
   -1.6890    4.5956   -1.5323 H   0  0  0  0  0  0  0  0  0  0  0  0
  1  2  2  0
  2  3  1  0
  3  4  2  0
  4  5  1  0
  5  6  1  0
  6  7  2  0
  7  8  1  0
  8  9  2  0
  9 10  1  0
 10 11  2  0
 11 12  1  0
 12 13  2  0
 13 14  1  0
  4 15  1  0
 15 16  2  0
 16  1  1  0
 14  5  2  0
 13  8  1  0
  1 17  1  0
  2 18  1  0
  3 19  1  0
  6 20  1  0
  7 21  1  0
  9 22  1  0
 10 23  1  0
 11 24  1  0
 12 25  1  0
 15 26  1  0
 16 27  1  0
M  END
$$$$

     RDKit          3D

 27 29  0  0  0  0  0  0  0  0999 V2000
    4.0300    2.2455    0.6123 C   0  0  0  0  0  0  0  0  0  0  0  0
    3.2718    2.2707   -0.5648 C   0  0  0  0  0  0  0  0  0  0  0  0
    2.0535    1.6042   -0.6303 C   0  0  0  0  0  0  0  0  0  0  0  0
    1.5662    0.9026    0.4787 C   0  0  0  0  0  0  0  0  0  0  0  0
    0.2466    0.2021    0.3894 C   0  0  0  0  0  0  0  0  0  0  0  0
   -0.5142   -0.0479    1.5544 C   0  0  0  0  0  0  0  0  0  0  0  0
   -1.6939   -0.7116    1.4643 C   0  0  0  0  0  0  0  0  0  0  0  0
   -2.1555   -1.1369    0.1991 C   0  0  0  0  0  0  0  0  0  0  0  0
   -3.3681   -1.8467    0.0025 C   0  0  0  0  0  0  0  0  0  0  0  0
   -3.7630   -2.2189   -1.2539 C   0  0  0  0  0  0  0  0  0  0  0  0
   -2.9623   -1.9069   -2.3745 C   0  0  0  0  0  0  0  0  0  0  0  0
   -1.7724   -1.2138   -2.2273 C   0  0  0  0  0  0  0  0  0  0  0  0
   -1.3377   -0.8196   -0.9335 C   0  0  0  0  0  0  0  0  0  0  0  0
   -0.1638   -0.1514   -0.8107 N   0  0  0  0  0  0  0  0  0  0  0  0
    2.3364    0.8695    1.6475 C   0  0  0  0  0  0  0  0  0  0  0  0
    3.5553    1.5443    1.7162 C   0  0  0  0  0  0  0  0  0  0  0  0
    4.9763    2.7637    0.6600 H   0  0  0  0  0  0  0  0  0  0  0  0
    3.6341    2.8100   -1.4244 H   0  0  0  0  0  0  0  0  0  0  0  0
    1.4731    1.6204   -1.5408 H   0  0  0  0  0  0  0  0  0  0  0  0
   -0.1536    0.3077    2.5079 H   0  0  0  0  0  0  0  0  0  0  0  0
   -2.2910   -0.9253    2.3417 H   0  0  0  0  0  0  0  0  0  0  0  0
   -3.9569   -2.0774    0.8735 H   0  0  0  0  0  0  0  0  0  0  0  0
   -4.6935   -2.7529   -1.3908 H   0  0  0  0  0  0  0  0  0  0  0  0
   -3.2797   -2.2077   -3.3604 H   0  0  0  0  0  0  0  0  0  0  0  0
   -1.1603   -0.9534   -3.0745 H   0  0  0  0  0  0  0  0  0  0  0  0
    1.9944    0.3199    2.5108 H   0  0  0  0  0  0  0  0  0  0  0  0
    4.1283    1.5099    2.6273 H   0  0  0  0  0  0  0  0  0  0  0  0
  1  2  2  0
  2  3  1  0
  3  4  2  0
  4  5  1  0
  5  6  1  0
  6  7  2  0
  7  8  1  0
  8  9  2  0
  9 10  1  0
 10 11  2  0
 11 12  1  0
 12 13  2  0
 13 14  1  0
  4 15  1  0
 15 16  2  0
 16  1  1  0
 14  5  2  0
 13  8  1  0
  1 17  1  0
  2 18  1  0
  3 19  1  0
  6 20  1  0
  7 21  1  0
  9 22  1  0
 10 23  1  0
 11 24  1  0
 12 25  1  0
 15 26  1  0
 16 27  1  0
M  END
$$$$

     RDKit          3D

 27 29  0  0  0  0  0  0  0  0999 V2000
    2.3824   -1.7331   -3.6069 C   0  0  0  0  0  0  0  0  0  0  0  0
    2.8441   -1.6778   -2.2866 C   0  0  0  0  0  0  0  0  0  0  0  0
    2.0566   -1.1145   -1.2887 C   0  0  0  0  0  0  0  0  0  0  0  0
    0.7958   -0.5824   -1.5911 C   0  0  0  0  0  0  0  0  0  0  0  0
   -0.0298    0.0378   -0.5050 C   0  0  0  0  0  0  0  0  0  0  0  0
   -1.1478    0.8473   -0.8161 C   0  0  0  0  0  0  0  0  0  0  0  0
   -1.8969    1.3814    0.1816 C   0  0  0  0  0  0  0  0  0  0  0  0
   -1.5456    1.1310    1.5247 C   0  0  0  0  0  0  0  0  0  0  0  0
   -2.2677    1.6447    2.6327 C   0  0  0  0  0  0  0  0  0  0  0  0
   -1.8739    1.3581    3.9111 C   0  0  0  0  0  0  0  0  0  0  0  0
   -0.7448    0.5430    4.1466 C   0  0  0  0  0  0  0  0  0  0  0  0
   -0.0095    0.0241    3.0942 C   0  0  0  0  0  0  0  0  0  0  0  0
   -0.3948    0.3100    1.7554 C   0  0  0  0  0  0  0  0  0  0  0  0
    0.3368   -0.2040    0.7372 N   0  0  0  0  0  0  0  0  0  0  0  0
    0.3386   -0.6538   -2.9119 C   0  0  0  0  0  0  0  0  0  0  0  0
    1.1267   -1.2223   -3.9121 C   0  0  0  0  0  0  0  0  0  0  0  0
    2.9962   -2.1707   -4.3807 H   0  0  0  0  0  0  0  0  0  0  0  0
    3.8153   -2.0757   -2.0411 H   0  0  0  0  0  0  0  0  0  0  0  0
    2.4129   -1.0860   -0.2711 H   0  0  0  0  0  0  0  0  0  0  0  0
   -1.3962    1.0478   -1.8466 H   0  0  0  0  0  0  0  0  0  0  0  0
   -2.7609    1.9996   -0.0309 H   0  0  0  0  0  0  0  0  0  0  0  0
   -3.1245    2.2627    2.4315 H   0  0  0  0  0  0  0  0  0  0  0  0
   -2.4324    1.7537    4.7487 H   0  0  0  0  0  0  0  0  0  0  0  0
   -0.4481    0.3218    5.1590 H   0  0  0  0  0  0  0  0  0  0  0  0
    0.8530   -0.5992    3.2596 H   0  0  0  0  0  0  0  0  0  0  0  0
   -0.6365   -0.2808   -3.1749 H   0  0  0  0  0  0  0  0  0  0  0  0
    0.7510   -1.2628   -4.9190 H   0  0  0  0  0  0  0  0  0  0  0  0
  1  2  2  0
  2  3  1  0
  3  4  2  0
  4  5  1  0
  5  6  1  0
  6  7  2  0
  7  8  1  0
  8  9  2  0
  9 10  1  0
 10 11  2  0
 11 12  1  0
 12 13  2  0
 13 14  1  0
  4 15  1  0
 15 16  2  0
 16  1  1  0
 14  5  2  0
 13  8  1  0
  1 17  1  0
  2 18  1  0
  3 19  1  0
  6 20  1  0
  7 21  1  0
  9 22  1  0
 10 23  1  0
 11 24  1  0
 12 25  1  0
 15 26  1  0
 16 27  1  0
M  END
$$$$

     RDKit          3D

 27 29  0  0  0  0  0  0  0  0999 V2000
    2.4128   -1.7518   -3.5788 C   0  0  0  0  0  0  0  0  0  0  0  0
    1.0736   -2.0365   -3.2859 C   0  0  0  0  0  0  0  0  0  0  0  0
    0.4480   -1.4379   -2.2007 C   0  0  0  0  0  0  0  0  0  0  0  0
    1.1444   -0.5408   -1.3807 C   0  0  0  0  0  0  0  0  0  0  0  0
    0.4421    0.1031   -0.2227 C   0  0  0  0  0  0  0  0  0  0  0  0
    1.0307    1.1866    0.4686 C   0  0  0  0  0  0  0  0  0  0  0  0
    0.3960    1.7465    1.5292 C   0  0  0  0  0  0  0  0  0  0  0  0
   -0.8623    1.2455    1.9275 C   0  0  0  0  0  0  0  0  0  0  0  0
   -1.6011    1.7545    3.0271 C   0  0  0  0  0  0  0  0  0  0  0  0
   -2.8231    1.2291    3.3479 C   0  0  0  0  0  0  0  0  0  0  0  0
   -3.3670    0.1710    2.5871 C   0  0  0  0  0  0  0  0  0  0  0  0
   -2.6741   -0.3651    1.5150 C   0  0  0  0  0  0  0  0  0  0  0  0
   -1.4005    0.1604    1.1621 C   0  0  0  0  0  0  0  0  0  0  0  0
   -0.7379   -0.3821    0.1094 N   0  0  0  0  0  0  0  0  0  0  0  0
    2.4884   -0.2746   -1.6716 C   0  0  0  0  0  0  0  0  0  0  0  0
    3.1156   -0.8708   -2.7659 C   0  0  0  0  0  0  0  0  0  0  0  0
    2.8951   -2.2166   -4.4253 H   0  0  0  0  0  0  0  0  0  0  0  0
    0.5229   -2.7230   -3.9071 H   0  0  0  0  0  0  0  0  0  0  0  0
   -0.5814   -1.6692   -1.9834 H   0  0  0  0  0  0  0  0  0  0  0  0
    1.9834    1.5701    0.1403 H   0  0  0  0  0  0  0  0  0  0  0  0
    0.8355    2.5700    2.0759 H   0  0  0  0  0  0  0  0  0  0  0  0
   -1.1664    2.5604    3.5924 H   0  0  0  0  0  0  0  0  0  0  0  0
   -3.3753    1.6264    4.1876 H   0  0  0  0  0  0  0  0  0  0  0  0
   -4.3334   -0.2313    2.8440 H   0  0  0  0  0  0  0  0  0  0  0  0
   -3.0729   -1.1774    0.9327 H   0  0  0  0  0  0  0  0  0  0  0  0
    3.0601    0.3979   -1.0531 H   0  0  0  0  0  0  0  0  0  0  0  0
    4.1468   -0.6445   -2.9715 H   0  0  0  0  0  0  0  0  0  0  0  0
  1  2  2  0
  2  3  1  0
  3  4  2  0
  4  5  1  0
  5  6  1  0
  6  7  2  0
  7  8  1  0
  8  9  2  0
  9 10  1  0
 10 11  2  0
 11 12  1  0
 12 13  2  0
 13 14  1  0
  4 15  1  0
 15 16  2  0
 16  1  1  0
 14  5  2  0
 13  8  1  0
  1 17  1  0
  2 18  1  0
  3 19  1  0
  6 20  1  0
  7 21  1  0
  9 22  1  0
 10 23  1  0
 11 24  1  0
 12 25  1  0
 15 26  1  0
 16 27  1  0
M  END
$$$$

     RDKit          3D

 27 29  0  0  0  0  0  0  0  0999 V2000
   -0.7386   -4.4533    1.1410 C   0  0  0  0  0  0  0  0  0  0  0  0
   -0.2321   -3.4706    1.9997 C   0  0  0  0  0  0  0  0  0  0  0  0
   -0.0122   -2.1787    1.5398 C   0  0  0  0  0  0  0  0  0  0  0  0
   -0.2958   -1.8365    0.2106 C   0  0  0  0  0  0  0  0  0  0  0  0
   -0.0582   -0.4335   -0.2609 C   0  0  0  0  0  0  0  0  0  0  0  0
   -0.0275   -0.1260   -1.6418 C   0  0  0  0  0  0  0  0  0  0  0  0
    0.1744    1.1526   -2.0504 C   0  0  0  0  0  0  0  0  0  0  0  0
    0.3526    2.1695   -1.0877 C   0  0  0  0  0  0  0  0  0  0  0  0
    0.5657    3.5336   -1.4146 C   0  0  0  0  0  0  0  0  0  0  0  0
    0.7254    4.4680   -0.4274 C   0  0  0  0  0  0  0  0  0  0  0  0
    0.6858    4.0837    0.9311 C   0  0  0  0  0  0  0  0  0  0  0  0
    0.4783    2.7638    1.2935 C   0  0  0  0  0  0  0  0  0  0  0  0
    0.3114    1.7736    0.2880 C   0  0  0  0  0  0  0  0  0  0  0  0
    0.1168    0.4854    0.6675 N   0  0  0  0  0  0  0  0  0  0  0  0
   -0.8039   -2.8264   -0.6400 C   0  0  0  0  0  0  0  0  0  0  0  0
   -1.0216   -4.1236   -0.1796 C   0  0  0  0  0  0  0  0  0  0  0  0
   -0.9059   -5.4569    1.5016 H   0  0  0  0  0  0  0  0  0  0  0  0
   -0.0111   -3.7149    3.0256 H   0  0  0  0  0  0  0  0  0  0  0  0
    0.3813   -1.4304    2.2107 H   0  0  0  0  0  0  0  0  0  0  0  0
   -0.1569   -0.9158   -2.3689 H   0  0  0  0  0  0  0  0  0  0  0  0
    0.2043    1.4093   -3.1018 H   0  0  0  0  0  0  0  0  0  0  0  0
    0.5960    3.7984   -2.4559 H   0  0  0  0  0  0  0  0  0  0  0  0
    0.8798    5.5060   -0.6862 H   0  0  0  0  0  0  0  0  0  0  0  0
    0.8146    4.8264    1.6996 H   0  0  0  0  0  0  0  0  0  0  0  0
    0.4340    2.4592    2.3263 H   0  0  0  0  0  0  0  0  0  0  0  0
   -1.0423   -2.5997   -1.6653 H   0  0  0  0  0  0  0  0  0  0  0  0
   -1.4146   -4.8633   -0.8544 H   0  0  0  0  0  0  0  0  0  0  0  0
  1  2  2  0
  2  3  1  0
  3  4  2  0
  4  5  1  0
  5  6  1  0
  6  7  2  0
  7  8  1  0
  8  9  2  0
  9 10  1  0
 10 11  2  0
 11 12  1  0
 12 13  2  0
 13 14  1  0
  4 15  1  0
 15 16  2  0
 16  1  1  0
 14  5  2  0
 13  8  1  0
  1 17  1  0
  2 18  1  0
  3 19  1  0
  6 20  1  0
  7 21  1  0
  9 22  1  0
 10 23  1  0
 11 24  1  0
 12 25  1  0
 15 26  1  0
 16 27  1  0
M  END
$$$$
