
     RDKit          3D

 27 29  0  0  0  0  0  0  0  0999 V2000
    0.0464   -2.2045    3.4676 C   0  0  0  0  0  0  0  0  0  0  0  0
   -0.8208   -2.6978    2.4862 C   0  0  0  0  0  0  0  0  0  0  0  0
   -1.1052   -1.9397    1.3574 C   0  0  0  0  0  0  0  0  0  0  0  0
   -0.5267   -0.6747    1.2002 C   0  0  0  0  0  0  0  0  0  0  0  0
   -0.8762    0.1425    0.0231 C   0  0  0  0  0  0  0  0  0  0  0  0
   -2.1390    0.4885   -0.1091 N   0  0  0  0  0  0  0  0  0  0  0  0
   -2.4996    1.2668   -1.1341 C   0  0  0  0  0  0  0  0  0  0  0  0
   -1.6289    1.7335   -2.0929 C   0  0  0  0  0  0  0  0  0  0  0  0
   -0.2637    1.3741   -2.0110 C   0  0  0  0  0  0  0  0  0  0  0  0
    0.7012    1.7957   -2.9382 C   0  0  0  0  0  0  0  0  0  0  0  0
    2.0103    1.3946   -2.8112 C   0  0  0  0  0  0  0  0  0  0  0  0
    2.3982    0.5604   -1.7569 C   0  0  0  0  0  0  0  0  0  0  0  0
    1.4756    0.1271   -0.8297 C   0  0  0  0  0  0  0  0  0  0  0  0
    0.1402    0.5368   -0.9255 C   0  0  0  0  0  0  0  0  0  0  0  0
    0.3423   -0.1809    2.1791 C   0  0  0  0  0  0  0  0  0  0  0  0
    0.6204   -0.9431    3.3107 C   0  0  0  0  0  0  0  0  0  0  0  0
    0.2639   -2.7960    4.3428 H   0  0  0  0  0  0  0  0  0  0  0  0
   -1.2620   -3.6754    2.6086 H   0  0  0  0  0  0  0  0  0  0  0  0
   -1.7743   -2.3163    0.5950 H   0  0  0  0  0  0  0  0  0  0  0  0
   -3.5489    1.5278   -1.1860 H   0  0  0  0  0  0  0  0  0  0  0  0
   -1.9830    2.3540   -2.9069 H   0  0  0  0  0  0  0  0  0  0  0  0
    0.4008    2.4419   -3.7564 H   0  0  0  0  0  0  0  0  0  0  0  0
    2.7516    1.7283   -3.5351 H   0  0  0  0  0  0  0  0  0  0  0  0
    3.4279    0.2496   -1.6663 H   0  0  0  0  0  0  0  0  0  0  0  0
    1.7679   -0.5317   -0.0321 H   0  0  0  0  0  0  0  0  0  0  0  0
    0.7973    0.7909    2.0534 H   0  0  0  0  0  0  0  0  0  0  0  0
    1.2846   -0.5528    4.0671 H   0  0  0  0  0  0  0  0  0  0  0  0
  1  2  2  0
  2  3  1  0
  3  4  2  0
  4  5  1  0
  5  6  1  0
  6  7  2  0
  7  8  1  0
  8  9  2  0
  9 10  1  0
 10 11  2  0
 11 12  1  0
 12 13  2  0
 13 14  1  0
  4 15  1  0
 15 16  2  0
 16  1  1  0
 14  5  2  0
 14  9  1  0
  1 17  1  0
  2 18  1  0
  3 19  1  0
  7 20  1  0
  8 21  1  0
 10 22  1  0
 11 23  1  0
 12 24  1  0
 13 25  1  0
 15 26  1  0
 16 27  1  0
M  END
$$$$

     RDKit          3D

 27 29  0  0  0  0  0  0  0  0999 V2000
    2.8304   -2.6888   -1.2703 C   0  0  0  0  0  0  0  0  0  0  0  0
    1.7676   -3.2748   -0.5745 C   0  0  0  0  0  0  0  0  0  0  0  0
    0.8537   -2.4790    0.1062 C   0  0  0  0  0  0  0  0  0  0  0  0
    0.9946   -1.0852    0.0957 C   0  0  0  0  0  0  0  0  0  0  0  0
    0.0470   -0.2492    0.8564 C   0  0  0  0  0  0  0  0  0  0  0  0
   -0.0072   -0.4342    2.1575 N   0  0  0  0  0  0  0  0  0  0  0  0
   -0.7973    0.3516    2.8999 C   0  0  0  0  0  0  0  0  0  0  0  0
   -1.5928    1.3505    2.3852 C   0  0  0  0  0  0  0  0  0  0  0  0
   -1.6030    1.5624    0.9877 C   0  0  0  0  0  0  0  0  0  0  0  0
   -2.3938    2.5379    0.3653 C   0  0  0  0  0  0  0  0  0  0  0  0
   -2.3836    2.6786   -1.0008 C   0  0  0  0  0  0  0  0  0  0  0  0
   -1.5853    1.8444   -1.7935 C   0  0  0  0  0  0  0  0  0  0  0  0
   -0.7932    0.8779   -1.2146 C   0  0  0  0  0  0  0  0  0  0  0  0
   -0.7718    0.7288    0.1771 C   0  0  0  0  0  0  0  0  0  0  0  0
    2.0581   -0.4996   -0.5995 C   0  0  0  0  0  0  0  0  0  0  0  0
    2.9728   -1.3020   -1.2743 C   0  0  0  0  0  0  0  0  0  0  0  0
    3.5391   -3.3100   -1.7968 H   0  0  0  0  0  0  0  0  0  0  0  0
    1.6586   -4.3478   -0.5738 H   0  0  0  0  0  0  0  0  0  0  0  0
    0.0343   -2.9279    0.6526 H   0  0  0  0  0  0  0  0  0  0  0  0
   -0.7855    0.1680    3.9668 H   0  0  0  0  0  0  0  0  0  0  0  0
   -2.2065    1.9638    3.0345 H   0  0  0  0  0  0  0  0  0  0  0  0
   -3.0203    3.1790    0.9770 H   0  0  0  0  0  0  0  0  0  0  0  0
   -2.9999    3.4442   -1.4703 H   0  0  0  0  0  0  0  0  0  0  0  0
   -1.5917    1.9546   -2.8677 H   0  0  0  0  0  0  0  0  0  0  0  0
   -0.1917    0.2251   -1.8211 H   0  0  0  0  0  0  0  0  0  0  0  0
    2.1708    0.5765   -0.6044 H   0  0  0  0  0  0  0  0  0  0  0  0
    3.7965   -0.8449   -1.8004 H   0  0  0  0  0  0  0  0  0  0  0  0
  1  2  2  0
  2  3  1  0
  3  4  2  0
  4  5  1  0
  5  6  1  0
  6  7  2  0
  7  8  1  0
  8  9  2  0
  9 10  1  0
 10 11  2  0
 11 12  1  0
 12 13  2  0
 13 14  1  0
  4 15  1  0
 15 16  2  0
 16  1  1  0
 14  5  2  0
 14  9  1  0
  1 17  1  0
  2 18  1  0
  3 19  1  0
  7 20  1  0
  8 21  1  0
 10 22  1  0
 11 23  1  0
 12 24  1  0
 13 25  1  0
 15 26  1  0
 16 27  1  0
M  END
$$$$

     RDKit          3D

 27 29  0  0  0  0  0  0  0  0999 V2000
   -3.3562    1.2508   -1.9848 C   0  0  0  0  0  0  0  0  0  0  0  0
   -3.4034    0.0533   -1.2676 C   0  0  0  0  0  0  0  0  0  0  0  0
   -2.2315   -0.5404   -0.8149 C   0  0  0  0  0  0  0  0  0  0  0  0
   -0.9957    0.0620   -1.0882 C   0  0  0  0  0  0  0  0  0  0  0  0
    0.2528   -0.5866   -0.6454 C   0  0  0  0  0  0  0  0  0  0  0  0
    0.7847   -1.4835   -1.4412 N   0  0  0  0  0  0  0  0  0  0  0  0
    1.9231   -2.0949   -1.0764 C   0  0  0  0  0  0  0  0  0  0  0  0
    2.5836   -1.8490    0.1057 C   0  0  0  0  0  0  0  0  0  0  0  0
    2.0413   -0.8963    1.0025 C   0  0  0  0  0  0  0  0  0  0  0  0
    2.6302   -0.5858    2.2365 C   0  0  0  0  0  0  0  0  0  0  0  0
    2.0648    0.3581    3.0592 C   0  0  0  0  0  0  0  0  0  0  0  0
    0.8912    1.0218    2.6787 C   0  0  0  0  0  0  0  0  0  0  0  0
    0.2813    0.7336    1.4778 C   0  0  0  0  0  0  0  0  0  0  0  0
    0.8376   -0.2248    0.6250 C   0  0  0  0  0  0  0  0  0  0  0  0
   -0.9446    1.2671   -1.7925 C   0  0  0  0  0  0  0  0  0  0  0  0
   -2.1270    1.8532   -2.2485 C   0  0  0  0  0  0  0  0  0  0  0  0
   -4.2686    1.7063   -2.3373 H   0  0  0  0  0  0  0  0  0  0  0  0
   -4.3581   -0.4095   -1.0657 H   0  0  0  0  0  0  0  0  0  0  0  0
   -2.2598   -1.4673   -0.2642 H   0  0  0  0  0  0  0  0  0  0  0  0
    2.3216   -2.8161   -1.7787 H   0  0  0  0  0  0  0  0  0  0  0  0
    3.4982   -2.3734    0.3543 H   0  0  0  0  0  0  0  0  0  0  0  0
    3.5443   -1.0956    2.5268 H   0  0  0  0  0  0  0  0  0  0  0  0
    2.5325    0.5966    4.0139 H   0  0  0  0  0  0  0  0  0  0  0  0
    0.4616    1.7675    3.3310 H   0  0  0  0  0  0  0  0  0  0  0  0
   -0.6240    1.2395    1.1849 H   0  0  0  0  0  0  0  0  0  0  0  0
    0.0069    1.7345   -1.9902 H   0  0  0  0  0  0  0  0  0  0  0  0
   -2.0870    2.7791   -2.8007 H   0  0  0  0  0  0  0  0  0  0  0  0
  1  2  2  0
  2  3  1  0
  3  4  2  0
  4  5  1  0
  5  6  1  0
  6  7  2  0
  7  8  1  0
  8  9  2  0
  9 10  1  0
 10 11  2  0
 11 12  1  0
 12 13  2  0
 13 14  1  0
  4 15  1  0
 15 16  2  0
 16  1  1  0
 14  5  2  0
 14  9  1  0
  1 17  1  0
  2 18  1  0
  3 19  1  0
  7 20  1  0
  8 21  1  0
 10 22  1  0
 11 23  1  0
 12 24  1  0
 13 25  1  0
 15 26  1  0
 16 27  1  0
M  END
$$$$

     RDKit          3D

 27 29  0  0  0  0  0  0  0  0999 V2000
   -2.5815   -2.9737   -1.0465 C   0  0  0  0  0  0  0  0  0  0  0  0
   -3.0665   -1.8795   -0.3263 C   0  0  0  0  0  0  0  0  0  0  0  0
   -2.1867   -1.0025    0.2983 C   0  0  0  0  0  0  0  0  0  0  0  0
   -0.8061   -1.2272    0.2127 C   0  0  0  0  0  0  0  0  0  0  0  0
    0.1368   -0.3036    0.8708 C   0  0  0  0  0  0  0  0  0  0  0  0
    0.4864   -0.5631    2.1070 N   0  0  0  0  0  0  0  0  0  0  0  0
    1.3596    0.2463    2.7293 C   0  0  0  0  0  0  0  0  0  0  0  0
    1.9225    1.3597    2.1472 C   0  0  0  0  0  0  0  0  0  0  0  0
    1.5723    1.6820    0.8148 C   0  0  0  0  0  0  0  0  0  0  0  0
    2.0919    2.7907    0.1299 C   0  0  0  0  0  0  0  0  0  0  0  0
    1.7096    3.0512   -1.1647 C   0  0  0  0  0  0  0  0  0  0  0  0
    0.7971    2.2150   -1.8214 C   0  0  0  0  0  0  0  0  0  0  0  0
    0.2681    1.1190   -1.1777 C   0  0  0  0  0  0  0  0  0  0  0  0
    0.6444    0.8342    0.1380 C   0  0  0  0  0  0  0  0  0  0  0  0
   -0.3177   -2.3249   -0.4987 C   0  0  0  0  0  0  0  0  0  0  0  0
   -1.2082   -3.1949   -1.1293 C   0  0  0  0  0  0  0  0  0  0  0  0
   -3.2693   -3.6472   -1.5351 H   0  0  0  0  0  0  0  0  0  0  0  0
   -4.1318   -1.7154   -0.2618 H   0  0  0  0  0  0  0  0  0  0  0  0
   -2.5544   -0.1565    0.8586 H   0  0  0  0  0  0  0  0  0  0  0  0
    1.6206   -0.0194    3.7465 H   0  0  0  0  0  0  0  0  0  0  0  0
    2.6104    1.9893    2.6996 H   0  0  0  0  0  0  0  0  0  0  0  0
    2.8015    3.4383    0.6359 H   0  0  0  0  0  0  0  0  0  0  0  0
    2.1174    3.9175   -1.6869 H   0  0  0  0  0  0  0  0  0  0  0  0
    0.5053    2.4375   -2.8378 H   0  0  0  0  0  0  0  0  0  0  0  0
   -0.4354    0.4739   -1.6750 H   0  0  0  0  0  0  0  0  0  0  0  0
    0.7440   -2.5057   -0.5459 H   0  0  0  0  0  0  0  0  0  0  0  0
   -0.8303   -4.0410   -1.6814 H   0  0  0  0  0  0  0  0  0  0  0  0
  1  2  2  0
  2  3  1  0
  3  4  2  0
  4  5  1  0
  5  6  1  0
  6  7  2  0
  7  8  1  0
  8  9  2  0
  9 10  1  0
 10 11  2  0
 11 12  1  0
 12 13  2  0
 13 14  1  0
  4 15  1  0
 15 16  2  0
 16  1  1  0
 14  5  2  0
 14  9  1  0
  1 17  1  0
  2 18  1  0
  3 19  1  0
  7 20  1  0
  8 21  1  0
 10 22  1  0
 11 23  1  0
 12 24  1  0
 13 25  1  0
 15 26  1  0
 16 27  1  0
M  END
$$$$

     RDKit          3D

 27 29  0  0  0  0  0  0  0  0999 V2000
   -0.5625    1.1219   -3.8967 C   0  0  0  0  0  0  0  0  0  0  0  0
   -0.9174   -0.1984   -3.5995 C   0  0  0  0  0  0  0  0  0  0  0  0
   -0.5417   -0.7683   -2.3892 C   0  0  0  0  0  0  0  0  0  0  0  0
    0.2004   -0.0204   -1.4672 C   0  0  0  0  0  0  0  0  0  0  0  0
    0.6231   -0.6326   -0.1932 C   0  0  0  0  0  0  0  0  0  0  0  0
    1.5478   -1.5632   -0.2463 N   0  0  0  0  0  0  0  0  0  0  0  0
    1.9841   -2.1264    0.8894 C   0  0  0  0  0  0  0  0  0  0  0  0
    1.5115   -1.7973    2.1395 C   0  0  0  0  0  0  0  0  0  0  0  0
    0.5100   -0.8029    2.2501 C   0  0  0  0  0  0  0  0  0  0  0  0
   -0.0293   -0.3951    3.4781 C   0  0  0  0  0  0  0  0  0  0  0  0
   -1.0069    0.5686    3.5248 C   0  0  0  0  0  0  0  0  0  0  0  0
   -1.4860    1.1504    2.3455 C   0  0  0  0  0  0  0  0  0  0  0  0
   -0.9809    0.7693    1.1220 C   0  0  0  0  0  0  0  0  0  0  0  0
    0.0288   -0.1961    1.0507 C   0  0  0  0  0  0  0  0  0  0  0  0
    0.5562    1.2996   -1.7618 C   0  0  0  0  0  0  0  0  0  0  0  0
    0.1813    1.8630   -2.9788 C   0  0  0  0  0  0  0  0  0  0  0  0
   -0.8644    1.5626   -4.8337 H   0  0  0  0  0  0  0  0  0  0  0  0
   -1.4866   -0.7729   -4.3149 H   0  0  0  0  0  0  0  0  0  0  0  0
   -0.8189   -1.7849   -2.1549 H   0  0  0  0  0  0  0  0  0  0  0  0
    2.7538   -2.8810    0.7837 H   0  0  0  0  0  0  0  0  0  0  0  0
    1.8900   -2.2929    3.0256 H   0  0  0  0  0  0  0  0  0  0  0  0
    0.3412   -0.8547    4.3882 H   0  0  0  0  0  0  0  0  0  0  0  0
   -1.4140    0.8869    4.4837 H   0  0  0  0  0  0  0  0  0  0  0  0
   -2.2586    1.9046    2.3918 H   0  0  0  0  0  0  0  0  0  0  0  0
   -1.3525    1.2059    0.2133 H   0  0  0  0  0  0  0  0  0  0  0  0
    1.1198    1.8777   -1.0428 H   0  0  0  0  0  0  0  0  0  0  0  0
    0.4718    2.8768   -3.2073 H   0  0  0  0  0  0  0  0  0  0  0  0
  1  2  2  0
  2  3  1  0
  3  4  2  0
  4  5  1  0
  5  6  1  0
  6  7  2  0
  7  8  1  0
  8  9  2  0
  9 10  1  0
 10 11  2  0
 11 12  1  0
 12 13  2  0
 13 14  1  0
  4 15  1  0
 15 16  2  0
 16  1  1  0
 14  5  2  0
 14  9  1  0
  1 17  1  0
  2 18  1  0
  3 19  1  0
  7 20  1  0
  8 21  1  0
 10 22  1  0
 11 23  1  0
 12 24  1  0
 13 25  1  0
 15 26  1  0
 16 27  1  0
M  END
$$$$

     RDKit          3D

 27 29  0  0  0  0  0  0  0  0999 V2000
    0.2279   -3.8078   -1.5298 C   0  0  0  0  0  0  0  0  0  0  0  0
    0.6055   -3.7205   -0.1853 C   0  0  0  0  0  0  0  0  0  0  0  0
    0.7885   -2.4791    0.4091 C   0  0  0  0  0  0  0  0  0  0  0  0
    0.5912   -1.3092   -0.3348 C   0  0  0  0  0  0  0  0  0  0  0  0
    0.8309    0.0002    0.2976 C   0  0  0  0  0  0  0  0  0  0  0  0
    2.0395    0.2195    0.7724 N   0  0  0  0  0  0  0  0  0  0  0  0
    2.3320    1.4100    1.3021 C   0  0  0  0  0  0  0  0  0  0  0  0
    1.4342    2.4484    1.3970 C   0  0  0  0  0  0  0  0  0  0  0  0
    0.1133    2.2555    0.9285 C   0  0  0  0  0  0  0  0  0  0  0  0
   -0.8716    3.2517    0.9989 C   0  0  0  0  0  0  0  0  0  0  0  0
   -2.1453    3.0036    0.5498 C   0  0  0  0  0  0  0  0  0  0  0  0
   -2.4796    1.7496    0.0210 C   0  0  0  0  0  0  0  0  0  0  0  0
   -1.5361    0.7493   -0.0670 C   0  0  0  0  0  0  0  0  0  0  0  0
   -0.2253    0.9850    0.3685 C   0  0  0  0  0  0  0  0  0  0  0  0
    0.2211   -1.3948   -1.6803 C   0  0  0  0  0  0  0  0  0  0  0  0
    0.0376   -2.6415   -2.2722 C   0  0  0  0  0  0  0  0  0  0  0  0
    0.0943   -4.7748   -1.9894 H   0  0  0  0  0  0  0  0  0  0  0  0
    0.7502   -4.6215    0.3895 H   0  0  0  0  0  0  0  0  0  0  0  0
    1.0914   -2.4032    1.4460 H   0  0  0  0  0  0  0  0  0  0  0  0
    3.3426    1.5314    1.6714 H   0  0  0  0  0  0  0  0  0  0  0  0
    1.7204    3.3956    1.8376 H   0  0  0  0  0  0  0  0  0  0  0  0
   -0.6101    4.2199    1.4131 H   0  0  0  0  0  0  0  0  0  0  0  0
   -2.9012    3.7850    0.6046 H   0  0  0  0  0  0  0  0  0  0  0  0
   -3.4876    1.5581   -0.3139 H   0  0  0  0  0  0  0  0  0  0  0  0
   -1.7926   -0.2162   -0.4672 H   0  0  0  0  0  0  0  0  0  0  0  0
    0.0813   -0.4918   -2.2578 H   0  0  0  0  0  0  0  0  0  0  0  0
   -0.2527   -2.7023   -3.3095 H   0  0  0  0  0  0  0  0  0  0  0  0
  1  2  2  0
  2  3  1  0
  3  4  2  0
  4  5  1  0
  5  6  1  0
  6  7  2  0
  7  8  1  0
  8  9  2  0
  9 10  1  0
 10 11  2  0
 11 12  1  0
 12 13  2  0
 13 14  1  0
  4 15  1  0
 15 16  2  0
 16  1  1  0
 14  5  2  0
 14  9  1  0
  1 17  1  0
  2 18  1  0
  3 19  1  0
  7 20  1  0
  8 21  1  0
 10 22  1  0
 11 23  1  0
 12 24  1  0
 13 25  1  0
 15 26  1  0
 16 27  1  0
M  END
$$$$

     RDKit          3D

 27 29  0  0  0  0  0  0  0  0999 V2000
   -3.0421    2.5580   -1.0155 C   0  0  0  0  0  0  0  0  0  0  0  0
   -2.7127    2.6142    0.3431 C   0  0  0  0  0  0  0  0  0  0  0  0
   -1.5632    1.9889    0.8096 C   0  0  0  0  0  0  0  0  0  0  0  0
   -0.7447    1.2774   -0.0746 C   0  0  0  0  0  0  0  0  0  0  0  0
    0.4735    0.6188    0.4309 C   0  0  0  0  0  0  0  0  0  0  0  0
    1.3341    1.3769    1.0805 N   0  0  0  0  0  0  0  0  0  0  0  0
    2.4853    0.8476    1.5052 C   0  0  0  0  0  0  0  0  0  0  0  0
    2.8404   -0.4689    1.3212 C   0  0  0  0  0  0  0  0  0  0  0  0
    1.9376   -1.3333    0.6585 C   0  0  0  0  0  0  0  0  0  0  0  0
    2.2077   -2.6921    0.4360 C   0  0  0  0  0  0  0  0  0  0  0  0
    1.2765   -3.4959   -0.1762 C   0  0  0  0  0  0  0  0  0  0  0  0
    0.0472   -2.9688   -0.5861 C   0  0  0  0  0  0  0  0  0  0  0  0
   -0.2458   -1.6370   -0.3949 C   0  0  0  0  0  0  0  0  0  0  0  0
    0.6955   -0.7914    0.2092 C   0  0  0  0  0  0  0  0  0  0  0  0
   -1.0644    1.2391   -1.4378 C   0  0  0  0  0  0  0  0  0  0  0  0
   -2.2076    1.8793   -1.9028 C   0  0  0  0  0  0  0  0  0  0  0  0
   -3.9374    3.0442   -1.3719 H   0  0  0  0  0  0  0  0  0  0  0  0
   -3.3534    3.1494    1.0282 H   0  0  0  0  0  0  0  0  0  0  0  0
   -1.2853    2.0564    1.8546 H   0  0  0  0  0  0  0  0  0  0  0  0
    3.1542    1.5220    2.0248 H   0  0  0  0  0  0  0  0  0  0  0  0
    3.7885   -0.8474    1.6822 H   0  0  0  0  0  0  0  0  0  0  0  0
    3.1596   -3.0983    0.7611 H   0  0  0  0  0  0  0  0  0  0  0  0
    1.4914   -4.5494   -0.3415 H   0  0  0  0  0  0  0  0  0  0  0  0
   -0.6811   -3.6146   -1.0552 H   0  0  0  0  0  0  0  0  0  0  0  0
   -1.1915   -1.2306   -0.7070 H   0  0  0  0  0  0  0  0  0  0  0  0
   -0.4165    0.7113   -2.1266 H   0  0  0  0  0  0  0  0  0  0  0  0
   -2.4458    1.8441   -2.9551 H   0  0  0  0  0  0  0  0  0  0  0  0
  1  2  2  0
  2  3  1  0
  3  4  2  0
  4  5  1  0
  5  6  1  0
  6  7  2  0
  7  8  1  0
  8  9  2  0
  9 10  1  0
 10 11  2  0
 11 12  1  0
 12 13  2  0
 13 14  1  0
  4 15  1  0
 15 16  2  0
 16  1  1  0
 14  5  2  0
 14  9  1  0
  1 17  1  0
  2 18  1  0
  3 19  1  0
  7 20  1  0
  8 21  1  0
 10 22  1  0
 11 23  1  0
 12 24  1  0
 13 25  1  0
 15 26  1  0
 16 27  1  0
M  END
$$$$

     RDKit          3D

 27 29  0  0  0  0  0  0  0  0999 V2000
    3.8574   -0.5954   -1.2471 C   0  0  0  0  0  0  0  0  0  0  0  0
    2.8930   -1.6044   -1.1855 C   0  0  0  0  0  0  0  0  0  0  0  0
    1.6976   -1.3931   -0.5152 C   0  0  0  0  0  0  0  0  0  0  0  0
    1.4603   -0.1623    0.1170 C   0  0  0  0  0  0  0  0  0  0  0  0
    0.2138    0.0538    0.8745 C   0  0  0  0  0  0  0  0  0  0  0  0
    0.3108    0.1455    2.1823 N   0  0  0  0  0  0  0  0  0  0  0  0
   -0.7986    0.3180    2.9133 C   0  0  0  0  0  0  0  0  0  0  0  0
   -2.0633    0.4173    2.3754 C   0  0  0  0  0  0  0  0  0  0  0  0
   -2.2179    0.3355    0.9709 C   0  0  0  0  0  0  0  0  0  0  0  0
   -3.4610    0.4272    0.3290 C   0  0  0  0  0  0  0  0  0  0  0  0
   -3.5458    0.3600   -1.0414 C   0  0  0  0  0  0  0  0  0  0  0  0
   -2.3921    0.1945   -1.8167 C   0  0  0  0  0  0  0  0  0  0  0  0
   -1.1557    0.0962   -1.2185 C   0  0  0  0  0  0  0  0  0  0  0  0
   -1.0460    0.1544    0.1758 C   0  0  0  0  0  0  0  0  0  0  0  0
    2.4195    0.8488    0.0554 C   0  0  0  0  0  0  0  0  0  0  0  0
    3.6192    0.6309   -0.6236 C   0  0  0  0  0  0  0  0  0  0  0  0
    4.7869   -0.7630   -1.7711 H   0  0  0  0  0  0  0  0  0  0  0  0
    3.0808   -2.5561   -1.6630 H   0  0  0  0  0  0  0  0  0  0  0  0
    0.9440   -2.1694   -0.4678 H   0  0  0  0  0  0  0  0  0  0  0  0
   -0.6591    0.3890    3.9834 H   0  0  0  0  0  0  0  0  0  0  0  0
   -2.9312    0.5538    3.0097 H   0  0  0  0  0  0  0  0  0  0  0  0
   -4.3555    0.5572    0.9309 H   0  0  0  0  0  0  0  0  0  0  0  0
   -4.5159    0.4392   -1.5311 H   0  0  0  0  0  0  0  0  0  0  0  0
   -2.4691    0.1414   -2.8933 H   0  0  0  0  0  0  0  0  0  0  0  0
   -0.2683   -0.0288   -1.8128 H   0  0  0  0  0  0  0  0  0  0  0  0
    2.2345    1.7966    0.5401 H   0  0  0  0  0  0  0  0  0  0  0  0
    4.3616    1.4130   -0.6707 H   0  0  0  0  0  0  0  0  0  0  0  0
  1  2  2  0
  2  3  1  0
  3  4  2  0
  4  5  1  0
  5  6  1  0
  6  7  2  0
  7  8  1  0
  8  9  2  0
  9 10  1  0
 10 11  2  0
 11 12  1  0
 12 13  2  0
 13 14  1  0
  4 15  1  0
 15 16  2  0
 16  1  1  0
 14  5  2  0
 14  9  1  0
  1 17  1  0
  2 18  1  0
  3 19  1  0
  7 20  1  0
  8 21  1  0
 10 22  1  0
 11 23  1  0
 12 24  1  0
 13 25  1  0
 15 26  1  0
 16 27  1  0
M  END
$$$$

     RDKit          3D

 27 29  0  0  0  0  0  0  0  0999 V2000
   -3.0439    0.3746    2.7014 C   0  0  0  0  0  0  0  0  0  0  0  0
   -1.7342    0.2538    3.1768 C   0  0  0  0  0  0  0  0  0  0  0  0
   -0.7126   -0.1482    2.3248 C   0  0  0  0  0  0  0  0  0  0  0  0
   -1.0040   -0.4471    0.9878 C   0  0  0  0  0  0  0  0  0  0  0  0
    0.0691   -0.9085    0.0893 C   0  0  0  0  0  0  0  0  0  0  0  0
    0.3211   -2.1970    0.0580 N   0  0  0  0  0  0  0  0  0  0  0  0
    1.2819   -2.6537   -0.7583 C   0  0  0  0  0  0  0  0  0  0  0  0
    2.0425   -1.8510   -1.5791 C   0  0  0  0  0  0  0  0  0  0  0  0
    1.8071   -0.4549   -1.5771 C   0  0  0  0  0  0  0  0  0  0  0  0
    2.5230    0.4449   -2.3810 C   0  0  0  0  0  0  0  0  0  0  0  0
    2.2515    1.7910   -2.3314 C   0  0  0  0  0  0  0  0  0  0  0  0
    1.2564    2.2833   -1.4762 C   0  0  0  0  0  0  0  0  0  0  0  0
    0.5314    1.4265   -0.6778 C   0  0  0  0  0  0  0  0  0  0  0  0
    0.7907    0.0527   -0.7135 C   0  0  0  0  0  0  0  0  0  0  0  0
   -2.3083   -0.3143    0.5036 C   0  0  0  0  0  0  0  0  0  0  0  0
   -3.3287    0.0886    1.3666 C   0  0  0  0  0  0  0  0  0  0  0  0
   -3.8342    0.6832    3.3698 H   0  0  0  0  0  0  0  0  0  0  0  0
   -1.5183    0.4824    4.2098 H   0  0  0  0  0  0  0  0  0  0  0  0
    0.3009   -0.2482    2.6850 H   0  0  0  0  0  0  0  0  0  0  0  0
    1.4481   -3.7258   -0.7504 H   0  0  0  0  0  0  0  0  0  0  0  0
    2.8136   -2.2711   -2.2142 H   0  0  0  0  0  0  0  0  0  0  0  0
    3.2854    0.0598   -3.0507 H   0  0  0  0  0  0  0  0  0  0  0  0
    2.8078    2.4822   -2.9648 H   0  0  0  0  0  0  0  0  0  0  0  0
    1.0538    3.3435   -1.4436 H   0  0  0  0  0  0  0  0  0  0  0  0
   -0.2359    1.8020   -0.0214 H   0  0  0  0  0  0  0  0  0  0  0  0
   -2.5245   -0.5321   -0.5314 H   0  0  0  0  0  0  0  0  0  0  0  0
   -4.3394    0.1832    0.9980 H   0  0  0  0  0  0  0  0  0  0  0  0
  1  2  2  0
  2  3  1  0
  3  4  2  0
  4  5  1  0
  5  6  1  0
  6  7  2  0
  7  8  1  0
  8  9  2  0
  9 10  1  0
 10 11  2  0
 11 12  1  0
 12 13  2  0
 13 14  1  0
  4 15  1  0
 15 16  2  0
 16  1  1  0
 14  5  2  0
 14  9  1  0
  1 17  1  0
  2 18  1  0
  3 19  1  0
  7 20  1  0
  8 21  1  0
 10 22  1  0
 11 23  1  0
 12 24  1  0
 13 25  1  0
 15 26  1  0
 16 27  1  0
M  END
$$$$

     RDKit          3D

 27 29  0  0  0  0  0  0  0  0999 V2000
    0.1100    1.6469   -3.7625 C   0  0  0  0  0  0  0  0  0  0  0  0
    1.2279    0.8542   -3.4794 C   0  0  0  0  0  0  0  0  0  0  0  0
    1.4531    0.4025   -2.1850 C   0  0  0  0  0  0  0  0  0  0  0  0
    0.5529    0.7271   -1.1624 C   0  0  0  0  0  0  0  0  0  0  0  0
    0.8180    0.2652    0.2123 C   0  0  0  0  0  0  0  0  0  0  0  0
    1.9770    0.6013    0.7416 N   0  0  0  0  0  0  0  0  0  0  0  0
    2.2366    0.2773    2.0103 C   0  0  0  0  0  0  0  0  0  0  0  0
    1.3694   -0.4209    2.8214 C   0  0  0  0  0  0  0  0  0  0  0  0
    0.1284   -0.8425    2.2922 C   0  0  0  0  0  0  0  0  0  0  0  0
   -0.8111   -1.5724    3.0372 C   0  0  0  0  0  0  0  0  0  0  0  0
   -1.9901   -1.9775    2.4615 C   0  0  0  0  0  0  0  0  0  0  0  0
   -2.2660   -1.6724    1.1237 C   0  0  0  0  0  0  0  0  0  0  0  0
   -1.3670   -0.9540    0.3648 C   0  0  0  0  0  0  0  0  0  0  0  0
   -0.1671   -0.5100    0.9343 C   0  0  0  0  0  0  0  0  0  0  0  0
   -0.5598    1.5272   -1.4450 C   0  0  0  0  0  0  0  0  0  0  0  0
   -0.7756    1.9853   -2.7399 C   0  0  0  0  0  0  0  0  0  0  0  0
   -0.0612    1.9988   -4.7687 H   0  0  0  0  0  0  0  0  0  0  0  0
    1.9157    0.5983   -4.2708 H   0  0  0  0  0  0  0  0  0  0  0  0
    2.3283   -0.1920   -1.9551 H   0  0  0  0  0  0  0  0  0  0  0  0
    3.1977    0.5945    2.3948 H   0  0  0  0  0  0  0  0  0  0  0  0
    1.6298   -0.6608    3.8449 H   0  0  0  0  0  0  0  0  0  0  0  0
   -0.5919   -1.8083    4.0723 H   0  0  0  0  0  0  0  0  0  0  0  0
   -2.7147   -2.5406    3.0459 H   0  0  0  0  0  0  0  0  0  0  0  0
   -3.1908   -2.0031    0.6776 H   0  0  0  0  0  0  0  0  0  0  0  0
   -1.5736   -0.7302   -0.6661 H   0  0  0  0  0  0  0  0  0  0  0  0
   -1.2453    1.7941   -0.6540 H   0  0  0  0  0  0  0  0  0  0  0  0
   -1.6305    2.6120   -2.9462 H   0  0  0  0  0  0  0  0  0  0  0  0
  1  2  2  0
  2  3  1  0
  3  4  2  0
  4  5  1  0
  5  6  1  0
  6  7  2  0
  7  8  1  0
  8  9  2  0
  9 10  1  0
 10 11  2  0
 11 12  1  0
 12 13  2  0
 13 14  1  0
  4 15  1  0
 15 16  2  0
 16  1  1  0
 14  5  2  0
 14  9  1  0
  1 17  1  0
  2 18  1  0
  3 19  1  0
  7 20  1  0
  8 21  1  0
 10 22  1  0
 11 23  1  0
 12 24  1  0
 13 25  1  0
 15 26  1  0
 16 27  1  0
M  END
$$$$

     RDKit          3D

 27 29  0  0  0  0  0  0  0  0999 V2000
   -1.3816   -1.8213    3.3822 C   0  0  0  0  0  0  0  0  0  0  0  0
   -1.6635   -2.4692    2.1746 C   0  0  0  0  0  0  0  0  0  0  0  0
   -1.4802   -1.8085    0.9646 C   0  0  0  0  0  0  0  0  0  0  0  0
   -1.0140   -0.4875    0.9614 C   0  0  0  0  0  0  0  0  0  0  0  0
   -0.8349    0.2336   -0.3113 C   0  0  0  0  0  0  0  0  0  0  0  0
   -1.9067    0.7180   -0.8916 N   0  0  0  0  0  0  0  0  0  0  0  0
   -1.7712    1.4398   -2.0163 C   0  0  0  0  0  0  0  0  0  0  0  0
   -0.5624    1.7041   -2.6207 C   0  0  0  0  0  0  0  0  0  0  0  0
    0.6185    1.1826   -2.0413 C   0  0  0  0  0  0  0  0  0  0  0  0
    1.8940    1.3901   -2.5867 C   0  0  0  0  0  0  0  0  0  0  0  0
    3.0045    0.8451   -1.9873 C   0  0  0  0  0  0  0  0  0  0  0  0
    2.8765    0.0725   -0.8261 C   0  0  0  0  0  0  0  0  0  0  0  0
    1.6373   -0.1479   -0.2635 C   0  0  0  0  0  0  0  0  0  0  0  0
    0.4952    0.4058   -0.8499 C   0  0  0  0  0  0  0  0  0  0  0  0
   -0.7298    0.1626    2.1652 C   0  0  0  0  0  0  0  0  0  0  0  0
   -0.9196   -0.5056    3.3735 C   0  0  0  0  0  0  0  0  0  0  0  0
   -1.5261   -2.3393    4.3185 H   0  0  0  0  0  0  0  0  0  0  0  0
   -2.0222   -3.4878    2.1887 H   0  0  0  0  0  0  0  0  0  0  0  0
   -1.7037   -2.2958    0.0253 H   0  0  0  0  0  0  0  0  0  0  0  0
   -2.6857    1.8263   -2.4472 H   0  0  0  0  0  0  0  0  0  0  0  0
   -0.5078    2.2948   -3.5275 H   0  0  0  0  0  0  0  0  0  0  0  0
    1.9903    1.9919   -3.4850 H   0  0  0  0  0  0  0  0  0  0  0  0
    3.9927    1.0163   -2.4153 H   0  0  0  0  0  0  0  0  0  0  0  0
    3.7539   -0.3596   -0.3699 H   0  0  0  0  0  0  0  0  0  0  0  0
    1.5318   -0.7418    0.6271 H   0  0  0  0  0  0  0  0  0  0  0  0
   -0.3786    1.1837    2.1534 H   0  0  0  0  0  0  0  0  0  0  0  0
   -0.7067   -0.0031    4.3053 H   0  0  0  0  0  0  0  0  0  0  0  0
  1  2  2  0
  2  3  1  0
  3  4  2  0
  4  5  1  0
  5  6  1  0
  6  7  2  0
  7  8  1  0
  8  9  2  0
  9 10  1  0
 10 11  2  0
 11 12  1  0
 12 13  2  0
 13 14  1  0
  4 15  1  0
 15 16  2  0
 16  1  1  0
 14  5  2  0
 14  9  1  0
  1 17  1  0
  2 18  1  0
  3 19  1  0
  7 20  1  0
  8 21  1  0
 10 22  1  0
 11 23  1  0
 12 24  1  0
 13 25  1  0
 15 26  1  0
 16 27  1  0
M  END
$$$$

     RDKit          3D

 27 29  0  0  0  0  0  0  0  0999 V2000
    1.7106   -3.2391   -1.8515 C   0  0  0  0  0  0  0  0  0  0  0  0
    0.3129   -3.3040   -1.8145 C   0  0  0  0  0  0  0  0  0  0  0  0
   -0.4064   -2.4067   -1.0357 C   0  0  0  0  0  0  0  0  0  0  0  0
    0.2648   -1.4244   -0.2973 C   0  0  0  0  0  0  0  0  0  0  0  0
   -0.5123   -0.4925    0.5410 C   0  0  0  0  0  0  0  0  0  0  0  0
   -1.3108   -1.0243    1.4459 N   0  0  0  0  0  0  0  0  0  0  0  0
   -1.9667   -0.2197    2.2905 C   0  0  0  0  0  0  0  0  0  0  0  0
   -1.8909    1.1552    2.2605 C   0  0  0  0  0  0  0  0  0  0  0  0
   -1.0868    1.7742    1.2769 C   0  0  0  0  0  0  0  0  0  0  0  0
   -0.9629    3.1667    1.1601 C   0  0  0  0  0  0  0  0  0  0  0  0
   -0.1974    3.7183    0.1616 C   0  0  0  0  0  0  0  0  0  0  0  0
    0.4630    2.8955   -0.7581 C   0  0  0  0  0  0  0  0  0  0  0  0
    0.3764    1.5228   -0.6619 C   0  0  0  0  0  0  0  0  0  0  0  0
   -0.3817    0.9357    0.3600 C   0  0  0  0  0  0  0  0  0  0  0  0
    1.6633   -1.3668   -0.3256 C   0  0  0  0  0  0  0  0  0  0  0  0
    2.3788   -2.2732   -1.1000 C   0  0  0  0  0  0  0  0  0  0  0  0
    2.2670   -3.9374   -2.4572 H   0  0  0  0  0  0  0  0  0  0  0  0
   -0.2037   -4.0504   -2.3973 H   0  0  0  0  0  0  0  0  0  0  0  0
   -1.4855   -2.4630   -0.9849 H   0  0  0  0  0  0  0  0  0  0  0  0
   -2.5864   -0.7104    3.0295 H   0  0  0  0  0  0  0  0  0  0  0  0
   -2.4391    1.7634    2.9697 H   0  0  0  0  0  0  0  0  0  0  0  0
   -1.4754    3.8038    1.8729 H   0  0  0  0  0  0  0  0  0  0  0  0
   -0.1042    4.7994    0.0851 H   0  0  0  0  0  0  0  0  0  0  0  0
    1.0480    3.3378   -1.5503 H   0  0  0  0  0  0  0  0  0  0  0  0
    0.8827    0.8890   -1.3648 H   0  0  0  0  0  0  0  0  0  0  0  0
    2.1850   -0.6224    0.2580 H   0  0  0  0  0  0  0  0  0  0  0  0
    3.4578   -2.2273   -1.1125 H   0  0  0  0  0  0  0  0  0  0  0  0
  1  2  2  0
  2  3  1  0
  3  4  2  0
  4  5  1  0
  5  6  1  0
  6  7  2  0
  7  8  1  0
  8  9  2  0
  9 10  1  0
 10 11  2  0
 11 12  1  0
 12 13  2  0
 13 14  1  0
  4 15  1  0
 15 16  2  0
 16  1  1  0
 14  5  2  0
 14  9  1  0
  1 17  1  0
  2 18  1  0
  3 19  1  0
  7 20  1  0
  8 21  1  0
 10 22  1  0
 11 23  1  0
 12 24  1  0
 13 25  1  0
 15 26  1  0
 16 27  1  0
M  END
$$$$
