
     RDKit          3D

 24 25  0  0  0  0  0  0  0  0999 V2000
   -3.3004    1.3048   -2.5643 C   0  0  0  0  0  0  0  0  0  0  0  0
   -2.1709    0.9049   -1.6737 C   0  0  0  0  0  0  0  0  0  0  0  0
   -1.4311    1.8191   -0.9171 C   0  0  0  0  0  0  0  0  0  0  0  0
   -0.3986    1.3883   -0.1126 C   0  0  0  0  0  0  0  0  0  0  0  0
   -0.0903    0.0242   -0.0661 C   0  0  0  0  0  0  0  0  0  0  0  0
    1.0303   -0.5006    0.7686 C   0  0  0  0  0  0  0  0  0  0  0  0
    1.0498   -1.8522    1.1327 C   0  0  0  0  0  0  0  0  0  0  0  0
    2.0687   -2.3575    1.9316 C   0  0  0  0  0  0  0  0  0  0  0  0
    3.0966   -1.5250    2.3695 C   0  0  0  0  0  0  0  0  0  0  0  0
    3.1021   -0.1908    1.9976 C   0  0  0  0  0  0  0  0  0  0  0  0
    2.0828    0.3202    1.1990 C   0  0  0  0  0  0  0  0  0  0  0  0
   -0.8050   -0.8667   -0.7711 N   0  0  0  0  0  0  0  0  0  0  0  0
   -1.7943   -0.4397   -1.5386 C   0  0  0  0  0  0  0  0  0  0  0  0
   -3.3567    2.3902   -2.6747 H   0  0  0  0  0  0  0  0  0  0  0  0
   -3.1892    0.8633   -3.5575 H   0  0  0  0  0  0  0  0  0  0  0  0
   -4.2522    0.9611   -2.1636 H   0  0  0  0  0  0  0  0  0  0  0  0
   -1.6762    2.8719   -0.9641 H   0  0  0  0  0  0  0  0  0  0  0  0
    0.1608    2.0901    0.4918 H   0  0  0  0  0  0  0  0  0  0  0  0
    0.2629   -2.5056    0.7794 H   0  0  0  0  0  0  0  0  0  0  0  0
    2.0565   -3.4028    2.2124 H   0  0  0  0  0  0  0  0  0  0  0  0
    3.8830   -1.9216    2.9933 H   0  0  0  0  0  0  0  0  0  0  0  0
    3.8948    0.4691    2.3202 H   0  0  0  0  0  0  0  0  0  0  0  0
    2.1188    1.3575    0.8992 H   0  0  0  0  0  0  0  0  0  0  0  0
   -2.3422   -1.2022   -2.0919 H   0  0  0  0  0  0  0  0  0  0  0  0
  1  2  1  0
  2  3  2  0
  3  4  1  0
  4  5  2  0
  5  6  1  0
  6  7  2  0
  7  8  1  0
  8  9  2  0
  9 10  1  0
 10 11  2  0
  5 12  1  0
 12 13  2  0
 13  2  1  0
 11  6  1  0
  1 14  1  0
  1 15  1  0
  1 16  1  0
  3 17  1  0
  4 18  1  0
  7 19  1  0
  8 20  1  0
  9 21  1  0
 10 22  1  0
 11 23  1  0
 13 24  1  0
M  END
$$$$

     RDKit          3D

 24 25  0  0  0  0  0  0  0  0999 V2000
   -2.3658   -3.6522    0.4877 C   0  0  0  0  0  0  0  0  0  0  0  0
   -1.5597   -2.4124    0.2851 C   0  0  0  0  0  0  0  0  0  0  0  0
   -1.6337   -1.6556   -0.8890 C   0  0  0  0  0  0  0  0  0  0  0  0
   -0.8858   -0.5069   -1.0290 C   0  0  0  0  0  0  0  0  0  0  0  0
   -0.0500   -0.1016    0.0198 C   0  0  0  0  0  0  0  0  0  0  0  0
    0.7807    1.1363   -0.0666 C   0  0  0  0  0  0  0  0  0  0  0  0
    1.9020    1.2820    0.7585 C   0  0  0  0  0  0  0  0  0  0  0  0
    2.6840    2.4301    0.6970 C   0  0  0  0  0  0  0  0  0  0  0  0
    2.3618    3.4561   -0.1880 C   0  0  0  0  0  0  0  0  0  0  0  0
    1.2526    3.3249   -1.0087 C   0  0  0  0  0  0  0  0  0  0  0  0
    0.4658    2.1777   -0.9505 C   0  0  0  0  0  0  0  0  0  0  0  0
    0.0369   -0.8203    1.1470 N   0  0  0  0  0  0  0  0  0  0  0  0
   -0.6920   -1.9202    1.2701 C   0  0  0  0  0  0  0  0  0  0  0  0
   -2.4684   -4.2079   -0.4447 H   0  0  0  0  0  0  0  0  0  0  0  0
   -3.3713   -3.4081    0.8255 H   0  0  0  0  0  0  0  0  0  0  0  0
   -1.9119   -4.3089    1.2348 H   0  0  0  0  0  0  0  0  0  0  0  0
   -2.2806   -1.9893   -1.6929 H   0  0  0  0  0  0  0  0  0  0  0  0
   -0.9312    0.0743   -1.9398 H   0  0  0  0  0  0  0  0  0  0  0  0
    2.1566    0.4890    1.4524 H   0  0  0  0  0  0  0  0  0  0  0  0
    3.5467    2.5202    1.3432 H   0  0  0  0  0  0  0  0  0  0  0  0
    2.9704    4.3461   -0.2282 H   0  0  0  0  0  0  0  0  0  0  0  0
    0.9803    4.1119   -1.6978 H   0  0  0  0  0  0  0  0  0  0  0  0
   -0.3983    2.0961   -1.5951 H   0  0  0  0  0  0  0  0  0  0  0  0
   -0.5894   -2.4614    2.2090 H   0  0  0  0  0  0  0  0  0  0  0  0
  1  2  1  0
  2  3  2  0
  3  4  1  0
  4  5  2  0
  5  6  1  0
  6  7  2  0
  7  8  1  0
  8  9  2  0
  9 10  1  0
 10 11  2  0
  5 12  1  0
 12 13  2  0
 13  2  1  0
 11  6  1  0
  1 14  1  0
  1 15  1  0
  1 16  1  0
  3 17  1  0
  4 18  1  0
  7 19  1  0
  8 20  1  0
  9 21  1  0
 10 22  1  0
 11 23  1  0
 13 24  1  0
M  END
$$$$

     RDKit          3D

 24 25  0  0  0  0  0  0  0  0999 V2000
    0.1956   -0.3536    4.3605 C   0  0  0  0  0  0  0  0  0  0  0  0
    0.1095   -0.2184    2.8782 C   0  0  0  0  0  0  0  0  0  0  0  0
   -0.7685    0.6838    2.2661 C   0  0  0  0  0  0  0  0  0  0  0  0
   -0.8186    0.7866    0.8946 C   0  0  0  0  0  0  0  0  0  0  0  0
    0.0215   -0.0176    0.1139 C   0  0  0  0  0  0  0  0  0  0  0  0
    0.0151    0.0517   -1.3788 C   0  0  0  0  0  0  0  0  0  0  0  0
    0.5344   -1.0122   -2.1255 C   0  0  0  0  0  0  0  0  0  0  0  0
    0.5244   -0.9778   -3.5159 C   0  0  0  0  0  0  0  0  0  0  0  0
    0.0054    0.1251   -4.1894 C   0  0  0  0  0  0  0  0  0  0  0  0
   -0.4982    1.1925   -3.4634 C   0  0  0  0  0  0  0  0  0  0  0  0
   -0.4937    1.1615   -2.0712 C   0  0  0  0  0  0  0  0  0  0  0  0
    0.8567   -0.8943    0.6866 N   0  0  0  0  0  0  0  0  0  0  0  0
    0.8965   -0.9852    2.0079 C   0  0  0  0  0  0  0  0  0  0  0  0
   -0.7619   -0.6614    4.7777 H   0  0  0  0  0  0  0  0  0  0  0  0
    0.4447    0.6019    4.8209 H   0  0  0  0  0  0  0  0  0  0  0  0
    0.9512   -1.0855    4.6570 H   0  0  0  0  0  0  0  0  0  0  0  0
   -1.4134    1.2952    2.8860 H   0  0  0  0  0  0  0  0  0  0  0  0
   -1.4984    1.4760    0.4164 H   0  0  0  0  0  0  0  0  0  0  0  0
    0.9565   -1.8646   -1.6072 H   0  0  0  0  0  0  0  0  0  0  0  0
    0.9253   -1.8141   -4.0718 H   0  0  0  0  0  0  0  0  0  0  0  0
   -0.0035    0.1457   -5.2683 H   0  0  0  0  0  0  0  0  0  0  0  0
   -0.8942    2.0634   -3.9673 H   0  0  0  0  0  0  0  0  0  0  0  0
   -0.8849    2.0087   -1.5239 H   0  0  0  0  0  0  0  0  0  0  0  0
    1.5986   -1.7075    2.4168 H   0  0  0  0  0  0  0  0  0  0  0  0
  1  2  1  0
  2  3  2  0
  3  4  1  0
  4  5  2  0
  5  6  1  0
  6  7  2  0
  7  8  1  0
  8  9  2  0
  9 10  1  0
 10 11  2  0
  5 12  1  0
 12 13  2  0
 13  2  1  0
 11  6  1  0
  1 14  1  0
  1 15  1  0
  1 16  1  0
  3 17  1  0
  4 18  1  0
  7 19  1  0
  8 20  1  0
  9 21  1  0
 10 22  1  0
 11 23  1  0
 13 24  1  0
M  END
$$$$

     RDKit          3D

 24 25  0  0  0  0  0  0  0  0999 V2000
   -0.7923    3.3335   -2.7286 C   0  0  0  0  0  0  0  0  0  0  0  0
   -0.5407    2.1714   -1.8275 C   0  0  0  0  0  0  0  0  0  0  0  0
   -1.1549    0.9296   -2.0027 C   0  0  0  0  0  0  0  0  0  0  0  0
   -0.8935   -0.1068   -1.1346 C   0  0  0  0  0  0  0  0  0  0  0  0
   -0.0068    0.0931   -0.0701 C   0  0  0  0  0  0  0  0  0  0  0  0
    0.3063   -0.9899    0.9099 C   0  0  0  0  0  0  0  0  0  0  0  0
    1.4207   -0.8726    1.7488 C   0  0  0  0  0  0  0  0  0  0  0  0
    1.7353   -1.8754    2.6606 C   0  0  0  0  0  0  0  0  0  0  0  0
    0.9376   -3.0122    2.7623 C   0  0  0  0  0  0  0  0  0  0  0  0
   -0.1727   -3.1379    1.9463 C   0  0  0  0  0  0  0  0  0  0  0  0
   -0.4909   -2.1384    1.0301 C   0  0  0  0  0  0  0  0  0  0  0  0
    0.5977    1.2798    0.1047 N   0  0  0  0  0  0  0  0  0  0  0  0
    0.3333    2.2673   -0.7351 C   0  0  0  0  0  0  0  0  0  0  0  0
    0.1422    3.8105   -3.0245 H   0  0  0  0  0  0  0  0  0  0  0  0
   -1.3950    4.0910   -2.2263 H   0  0  0  0  0  0  0  0  0  0  0  0
   -1.3248    3.0295   -3.6321 H   0  0  0  0  0  0  0  0  0  0  0  0
   -1.8379    0.7842   -2.8284 H   0  0  0  0  0  0  0  0  0  0  0  0
   -1.3572   -1.0703   -1.2804 H   0  0  0  0  0  0  0  0  0  0  0  0
    2.0384    0.0147    1.6847 H   0  0  0  0  0  0  0  0  0  0  0  0
    2.6057   -1.7657    3.2932 H   0  0  0  0  0  0  0  0  0  0  0  0
    1.1850   -3.7870    3.4730 H   0  0  0  0  0  0  0  0  0  0  0  0
   -0.8085   -4.0087    2.0128 H   0  0  0  0  0  0  0  0  0  0  0  0
   -1.3693   -2.2543    0.4133 H   0  0  0  0  0  0  0  0  0  0  0  0
    0.8423    3.2145   -0.5492 H   0  0  0  0  0  0  0  0  0  0  0  0
  1  2  1  0
  2  3  2  0
  3  4  1  0
  4  5  2  0
  5  6  1  0
  6  7  2  0
  7  8  1  0
  8  9  2  0
  9 10  1  0
 10 11  2  0
  5 12  1  0
 12 13  2  0
 13  2  1  0
 11  6  1  0
  1 14  1  0
  1 15  1  0
  1 16  1  0
  3 17  1  0
  4 18  1  0
  7 19  1  0
  8 20  1  0
  9 21  1  0
 10 22  1  0
 11 23  1  0
 13 24  1  0
M  END
$$$$

     RDKit          3D

 24 25  0  0  0  0  0  0  0  0999 V2000
   -0.9370   -3.3005   -2.7234 C   0  0  0  0  0  0  0  0  0  0  0  0
   -0.5884   -2.1943   -1.7852 C   0  0  0  0  0  0  0  0  0  0  0  0
    0.7314   -1.8329   -1.5051 C   0  0  0  0  0  0  0  0  0  0  0  0
    1.0048   -0.7976   -0.6394 C   0  0  0  0  0  0  0  0  0  0  0  0
   -0.0547   -0.0964   -0.0519 C   0  0  0  0  0  0  0  0  0  0  0  0
    0.1887    1.0561    0.8678 C   0  0  0  0  0  0  0  0  0  0  0  0
   -0.7910    1.4463    1.7860 C   0  0  0  0  0  0  0  0  0  0  0  0
   -0.5673    2.5110    2.6537 C   0  0  0  0  0  0  0  0  0  0  0  0
    0.6354    3.2125    2.6161 C   0  0  0  0  0  0  0  0  0  0  0  0
    1.6090    2.8426    1.7055 C   0  0  0  0  0  0  0  0  0  0  0  0
    1.3901    1.7791    0.8350 C   0  0  0  0  0  0  0  0  0  0  0  0
   -1.3257   -0.4431   -0.2981 N   0  0  0  0  0  0  0  0  0  0  0  0
   -1.5761   -1.4441   -1.1283 C   0  0  0  0  0  0  0  0  0  0  0  0
   -1.5547   -4.0525   -2.2303 H   0  0  0  0  0  0  0  0  0  0  0  0
   -1.5003   -2.9250   -3.5759 H   0  0  0  0  0  0  0  0  0  0  0  0
   -0.0401   -3.7987   -3.1021 H   0  0  0  0  0  0  0  0  0  0  0  0
    1.5413   -2.3778   -1.9707 H   0  0  0  0  0  0  0  0  0  0  0  0
    2.0238   -0.5323   -0.3974 H   0  0  0  0  0  0  0  0  0  0  0  0
   -1.7330    0.9116    1.8132 H   0  0  0  0  0  0  0  0  0  0  0  0
   -1.3345    2.7915    3.3602 H   0  0  0  0  0  0  0  0  0  0  0  0
    0.8022    4.0366    3.2919 H   0  0  0  0  0  0  0  0  0  0  0  0
    2.5461    3.3774    1.6514 H   0  0  0  0  0  0  0  0  0  0  0  0
    2.1558    1.5161    0.1201 H   0  0  0  0  0  0  0  0  0  0  0  0
   -2.6258   -1.6855   -1.2932 H   0  0  0  0  0  0  0  0  0  0  0  0
  1  2  1  0
  2  3  2  0
  3  4  1  0
  4  5  2  0
  5  6  1  0
  6  7  2  0
  7  8  1  0
  8  9  2  0
  9 10  1  0
 10 11  2  0
  5 12  1  0
 12 13  2  0
 13  2  1  0
 11  6  1  0
  1 14  1  0
  1 15  1  0
  1 16  1  0
  3 17  1  0
  4 18  1  0
  7 19  1  0
  8 20  1  0
  9 21  1  0
 10 22  1  0
 11 23  1  0
 13 24  1  0
M  END
$$$$

     RDKit          3D

 24 25  0  0  0  0  0  0  0  0999 V2000
    2.1969    3.7825   -0.1930 C   0  0  0  0  0  0  0  0  0  0  0  0
    1.4680    2.4822   -0.1695 C   0  0  0  0  0  0  0  0  0  0  0  0
    2.0069    1.3018   -0.6863 C   0  0  0  0  0  0  0  0  0  0  0  0
    1.3030    0.1207   -0.6112 C   0  0  0  0  0  0  0  0  0  0  0  0
    0.0383    0.1119   -0.0116 C   0  0  0  0  0  0  0  0  0  0  0  0
   -0.7623   -1.1431    0.1139 C   0  0  0  0  0  0  0  0  0  0  0  0
   -2.1461   -1.0733    0.3094 C   0  0  0  0  0  0  0  0  0  0  0  0
   -2.9094   -2.2321    0.4189 C   0  0  0  0  0  0  0  0  0  0  0  0
   -2.3047   -3.4847    0.3395 C   0  0  0  0  0  0  0  0  0  0  0  0
   -0.9347   -3.5679    0.1575 C   0  0  0  0  0  0  0  0  0  0  0  0
   -0.1660   -2.4118    0.0495 C   0  0  0  0  0  0  0  0  0  0  0  0
   -0.5004    1.2437    0.4673 N   0  0  0  0  0  0  0  0  0  0  0  0
    0.1887    2.3709    0.3937 C   0  0  0  0  0  0  0  0  0  0  0  0
    2.3722    4.1458    0.8182 H   0  0  0  0  0  0  0  0  0  0  0  0
    3.1642    3.6846   -0.6914 H   0  0  0  0  0  0  0  0  0  0  0  0
    1.6214    4.5472   -0.7161 H   0  0  0  0  0  0  0  0  0  0  0  0
    2.9822    1.3227   -1.1533 H   0  0  0  0  0  0  0  0  0  0  0  0
    1.7121   -0.7946   -1.0146 H   0  0  0  0  0  0  0  0  0  0  0  0
   -2.6219   -0.1025    0.3785 H   0  0  0  0  0  0  0  0  0  0  0  0
   -3.9782   -2.1538    0.5598 H   0  0  0  0  0  0  0  0  0  0  0  0
   -2.9008   -4.3808    0.4195 H   0  0  0  0  0  0  0  0  0  0  0  0
   -0.4429   -4.5289    0.1014 H   0  0  0  0  0  0  0  0  0  0  0  0
    0.9042   -2.5026   -0.0779 H   0  0  0  0  0  0  0  0  0  0  0  0
   -0.2908    3.2621    0.7980 H   0  0  0  0  0  0  0  0  0  0  0  0
  1  2  1  0
  2  3  2  0
  3  4  1  0
  4  5  2  0
  5  6  1  0
  6  7  2  0
  7  8  1  0
  8  9  2  0
  9 10  1  0
 10 11  2  0
  5 12  1  0
 12 13  2  0
 13  2  1  0
 11  6  1  0
  1 14  1  0
  1 15  1  0
  1 16  1  0
  3 17  1  0
  4 18  1  0
  7 19  1  0
  8 20  1  0
  9 21  1  0
 10 22  1  0
 11 23  1  0
 13 24  1  0
M  END
$$$$

     RDKit          3D

 24 25  0  0  0  0  0  0  0  0999 V2000
    1.5472    3.4990   -2.1255 C   0  0  0  0  0  0  0  0  0  0  0  0
    1.0353    2.2823   -1.4313 C   0  0  0  0  0  0  0  0  0  0  0  0
    0.9500    1.0323   -2.0510 C   0  0  0  0  0  0  0  0  0  0  0  0
    0.4537   -0.0542   -1.3659 C   0  0  0  0  0  0  0  0  0  0  0  0
    0.0398    0.1031   -0.0393 C   0  0  0  0  0  0  0  0  0  0  0  0
   -0.5103   -1.0397    0.7470 C   0  0  0  0  0  0  0  0  0  0  0  0
   -0.3890   -1.0486    2.1393 C   0  0  0  0  0  0  0  0  0  0  0  0
   -0.8804   -2.1139    2.8878 C   0  0  0  0  0  0  0  0  0  0  0  0
   -1.5201   -3.1803    2.2603 C   0  0  0  0  0  0  0  0  0  0  0  0
   -1.6592   -3.1765    0.8822 C   0  0  0  0  0  0  0  0  0  0  0  0
   -1.1591   -2.1177    0.1278 C   0  0  0  0  0  0  0  0  0  0  0  0
    0.1310    1.2923    0.5718 N   0  0  0  0  0  0  0  0  0  0  0  0
    0.6050    2.3299   -0.0977 C   0  0  0  0  0  0  0  0  0  0  0  0
    2.3611    3.9564   -1.5630 H   0  0  0  0  0  0  0  0  0  0  0  0
    1.9167    3.2579   -3.1258 H   0  0  0  0  0  0  0  0  0  0  0  0
    0.7651    4.2517   -2.2275 H   0  0  0  0  0  0  0  0  0  0  0  0
    1.2799    0.9208   -3.0750 H   0  0  0  0  0  0  0  0  0  0  0  0
    0.3935   -1.0270   -1.8340 H   0  0  0  0  0  0  0  0  0  0  0  0
    0.0992   -0.2163    2.6331 H   0  0  0  0  0  0  0  0  0  0  0  0
   -0.7634   -2.1059    3.9627 H   0  0  0  0  0  0  0  0  0  0  0  0
   -1.9029   -4.0030    2.8466 H   0  0  0  0  0  0  0  0  0  0  0  0
   -2.1613   -3.9898    0.3771 H   0  0  0  0  0  0  0  0  0  0  0  0
   -1.2875   -2.1269   -0.9453 H   0  0  0  0  0  0  0  0  0  0  0  0
    0.6557    3.2742    0.4455 H   0  0  0  0  0  0  0  0  0  0  0  0
  1  2  1  0
  2  3  2  0
  3  4  1  0
  4  5  2  0
  5  6  1  0
  6  7  2  0
  7  8  1  0
  8  9  2  0
  9 10  1  0
 10 11  2  0
  5 12  1  0
 12 13  2  0
 13  2  1  0
 11  6  1  0
  1 14  1  0
  1 15  1  0
  1 16  1  0
  3 17  1  0
  4 18  1  0
  7 19  1  0
  8 20  1  0
  9 21  1  0
 10 22  1  0
 11 23  1  0
 13 24  1  0
M  END
$$$$

     RDKit          3D

 24 25  0  0  0  0  0  0  0  0999 V2000
    0.4369    1.6073   -4.0508 C   0  0  0  0  0  0  0  0  0  0  0  0
    0.3351    1.0758   -2.6610 C   0  0  0  0  0  0  0  0  0  0  0  0
    1.0764    1.5942   -1.5957 C   0  0  0  0  0  0  0  0  0  0  0  0
    0.9284    1.0785   -0.3268 C   0  0  0  0  0  0  0  0  0  0  0  0
    0.0221    0.0334   -0.1090 C   0  0  0  0  0  0  0  0  0  0  0  0
   -0.1985   -0.5632    1.2450 C   0  0  0  0  0  0  0  0  0  0  0  0
   -0.9620   -1.7312    1.3734 C   0  0  0  0  0  0  0  0  0  0  0  0
   -1.1882   -2.3017    2.6212 C   0  0  0  0  0  0  0  0  0  0  0  0
   -0.6504   -1.7232    3.7684 C   0  0  0  0  0  0  0  0  0  0  0  0
    0.1053   -0.5687    3.6564 C   0  0  0  0  0  0  0  0  0  0  0  0
    0.3312    0.0102    2.4112 C   0  0  0  0  0  0  0  0  0  0  0  0
   -0.6895   -0.4794   -1.1278 N   0  0  0  0  0  0  0  0  0  0  0  0
   -0.5359    0.0240   -2.3423 C   0  0  0  0  0  0  0  0  0  0  0  0
    1.3474    2.1961   -4.1842 H   0  0  0  0  0  0  0  0  0  0  0  0
   -0.4079    2.2508   -4.2817 H   0  0  0  0  0  0  0  0  0  0  0  0
    0.4385    0.7981   -4.7826 H   0  0  0  0  0  0  0  0  0  0  0  0
    1.7721    2.4025   -1.7753 H   0  0  0  0  0  0  0  0  0  0  0  0
    1.5131    1.4713    0.4920 H   0  0  0  0  0  0  0  0  0  0  0  0
   -1.3816   -2.1873    0.4869 H   0  0  0  0  0  0  0  0  0  0  0  0
   -1.7822   -3.2015    2.6941 H   0  0  0  0  0  0  0  0  0  0  0  0
   -0.8283   -2.1691    4.7348 H   0  0  0  0  0  0  0  0  0  0  0  0
    0.5271   -0.1004    4.5330 H   0  0  0  0  0  0  0  0  0  0  0  0
    0.9262    0.9103    2.3546 H   0  0  0  0  0  0  0  0  0  0  0  0
   -1.1354   -0.4269   -3.1336 H   0  0  0  0  0  0  0  0  0  0  0  0
  1  2  1  0
  2  3  2  0
  3  4  1  0
  4  5  2  0
  5  6  1  0
  6  7  2  0
  7  8  1  0
  8  9  2  0
  9 10  1  0
 10 11  2  0
  5 12  1  0
 12 13  2  0
 13  2  1  0
 11  6  1  0
  1 14  1  0
  1 15  1  0
  1 16  1  0
  3 17  1  0
  4 18  1  0
  7 19  1  0
  8 20  1  0
  9 21  1  0
 10 22  1  0
 11 23  1  0
 13 24  1  0
M  END
$$$$

     RDKit          3D

 24 25  0  0  0  0  0  0  0  0999 V2000
   -3.2574    2.8740    0.5358 C   0  0  0  0  0  0  0  0  0  0  0  0
   -2.1235    1.9158    0.3830 C   0  0  0  0  0  0  0  0  0  0  0  0
   -1.1619    1.7116    1.3760 C   0  0  0  0  0  0  0  0  0  0  0  0
   -0.1484    0.7977    1.1888 C   0  0  0  0  0  0  0  0  0  0  0  0
   -0.0882    0.0773   -0.0099 C   0  0  0  0  0  0  0  0  0  0  0  0
    0.9849   -0.9288   -0.2609 C   0  0  0  0  0  0  0  0  0  0  0  0
    1.3511   -1.2495   -1.5719 C   0  0  0  0  0  0  0  0  0  0  0  0
    2.3561   -2.1793   -1.8201 C   0  0  0  0  0  0  0  0  0  0  0  0
    3.0048   -2.8152   -0.7632 C   0  0  0  0  0  0  0  0  0  0  0  0
    2.6427   -2.5125    0.5399 C   0  0  0  0  0  0  0  0  0  0  0  0
    1.6413   -1.5787    0.7935 C   0  0  0  0  0  0  0  0  0  0  0  0
   -0.9942    0.2732   -0.9790 N   0  0  0  0  0  0  0  0  0  0  0  0
   -1.9714    1.1440   -0.7800 C   0  0  0  0  0  0  0  0  0  0  0  0
   -4.1965    2.3392    0.6684 H   0  0  0  0  0  0  0  0  0  0  0  0
   -3.1143    3.5232    1.4025 H   0  0  0  0  0  0  0  0  0  0  0  0
   -3.3668    3.5030   -0.3492 H   0  0  0  0  0  0  0  0  0  0  0  0
   -1.2132    2.2814    2.2953 H   0  0  0  0  0  0  0  0  0  0  0  0
    0.6040    0.6407    1.9493 H   0  0  0  0  0  0  0  0  0  0  0  0
    0.8398   -0.7686   -2.3978 H   0  0  0  0  0  0  0  0  0  0  0  0
    2.6320   -2.4032   -2.8411 H   0  0  0  0  0  0  0  0  0  0  0  0
    3.7818   -3.5387   -0.9614 H   0  0  0  0  0  0  0  0  0  0  0  0
    3.1253   -3.0014    1.3745 H   0  0  0  0  0  0  0  0  0  0  0  0
    1.3656   -1.3623    1.8161 H   0  0  0  0  0  0  0  0  0  0  0  0
   -2.6936    1.2571   -1.5887 H   0  0  0  0  0  0  0  0  0  0  0  0
  1  2  1  0
  2  3  2  0
  3  4  1  0
  4  5  2  0
  5  6  1  0
  6  7  2  0
  7  8  1  0
  8  9  2  0
  9 10  1  0
 10 11  2  0
  5 12  1  0
 12 13  2  0
 13  2  1  0
 11  6  1  0
  1 14  1  0
  1 15  1  0
  1 16  1  0
  3 17  1  0
  4 18  1  0
  7 19  1  0
  8 20  1  0
  9 21  1  0
 10 22  1  0
 11 23  1  0
 13 24  1  0
M  END
$$$$

     RDKit          3D

 24 25  0  0  0  0  0  0  0  0999 V2000
   -1.2979    3.4973   -2.2895 C   0  0  0  0  0  0  0  0  0  0  0  0
   -0.8766    2.3142   -1.4852 C   0  0  0  0  0  0  0  0  0  0  0  0
   -1.4727    1.9922   -0.2606 C   0  0  0  0  0  0  0  0  0  0  0  0
   -1.0582    0.8865    0.4479 C   0  0  0  0  0  0  0  0  0  0  0  0
   -0.0332    0.0843   -0.0707 C   0  0  0  0  0  0  0  0  0  0  0  0
    0.4650   -1.1261    0.6484 C   0  0  0  0  0  0  0  0  0  0  0  0
    1.7557   -1.6023    0.3904 C   0  0  0  0  0  0  0  0  0  0  0  0
    2.2460   -2.7217    1.0544 C   0  0  0  0  0  0  0  0  0  0  0  0
    1.4533   -3.3936    1.9818 C   0  0  0  0  0  0  0  0  0  0  0  0
    0.1692   -2.9380    2.2389 C   0  0  0  0  0  0  0  0  0  0  0  0
   -0.3254   -1.8154    1.5784 C   0  0  0  0  0  0  0  0  0  0  0  0
    0.5489    0.3843   -1.2390 N   0  0  0  0  0  0  0  0  0  0  0  0
    0.1397    1.4481   -1.9127 C   0  0  0  0  0  0  0  0  0  0  0  0
   -0.6208    3.6782   -3.1278 H   0  0  0  0  0  0  0  0  0  0  0  0
   -1.3300    4.3944   -1.6706 H   0  0  0  0  0  0  0  0  0  0  0  0
   -2.3001    3.3554   -2.6895 H   0  0  0  0  0  0  0  0  0  0  0  0
   -2.2610    2.6262    0.1279 H   0  0  0  0  0  0  0  0  0  0  0  0
   -1.5030    0.6416    1.4032 H   0  0  0  0  0  0  0  0  0  0  0  0
    2.3689   -1.0897   -0.3409 H   0  0  0  0  0  0  0  0  0  0  0  0
    3.2500   -3.0658    0.8464 H   0  0  0  0  0  0  0  0  0  0  0  0
    1.8364   -4.2639    2.4918 H   0  0  0  0  0  0  0  0  0  0  0  0
   -0.4659   -3.4485    2.9493 H   0  0  0  0  0  0  0  0  0  0  0  0
   -1.3337   -1.4795    1.7837 H   0  0  0  0  0  0  0  0  0  0  0  0
    0.6454    1.6418   -2.8560 H   0  0  0  0  0  0  0  0  0  0  0  0
  1  2  1  0
  2  3  2  0
  3  4  1  0
  4  5  2  0
  5  6  1  0
  6  7  2  0
  7  8  1  0
  8  9  2  0
  9 10  1  0
 10 11  2  0
  5 12  1  0
 12 13  2  0
 13  2  1  0
 11  6  1  0
  1 14  1  0
  1 15  1  0
  1 16  1  0
  3 17  1  0
  4 18  1  0
  7 19  1  0
  8 20  1  0
  9 21  1  0
 10 22  1  0
 11 23  1  0
 13 24  1  0
M  END
$$$$

     RDKit          3D

 24 25  0  0  0  0  0  0  0  0999 V2000
    1.0737   -3.8690   -1.7390 C   0  0  0  0  0  0  0  0  0  0  0  0
    0.6778   -2.5706   -1.1212 C   0  0  0  0  0  0  0  0  0  0  0  0
   -0.2835   -2.4688   -0.1117 C   0  0  0  0  0  0  0  0  0  0  0  0
   -0.6083   -1.2414    0.4231 C   0  0  0  0  0  0  0  0  0  0  0  0
    0.0360   -0.0949   -0.0545 C   0  0  0  0  0  0  0  0  0  0  0  0
   -0.2785    1.2613    0.4803 C   0  0  0  0  0  0  0  0  0  0  0  0
    0.6888    2.2692    0.4308 C   0  0  0  0  0  0  0  0  0  0  0  0
    0.4184    3.5371    0.9377 C   0  0  0  0  0  0  0  0  0  0  0  0
   -0.8301    3.8261    1.4857 C   0  0  0  0  0  0  0  0  0  0  0  0
   -1.8010    2.8394    1.5273 C   0  0  0  0  0  0  0  0  0  0  0  0
   -1.5306    1.5659    1.0337 C   0  0  0  0  0  0  0  0  0  0  0  0
    0.9711   -0.1809   -1.0122 N   0  0  0  0  0  0  0  0  0  0  0  0
    1.2710   -1.3642   -1.5201 C   0  0  0  0  0  0  0  0  0  0  0  0
    0.3738   -4.6654   -1.4788 H   0  0  0  0  0  0  0  0  0  0  0  0
    1.1154   -3.7900   -2.8263 H   0  0  0  0  0  0  0  0  0  0  0  0
    2.0625   -4.1728   -1.3969 H   0  0  0  0  0  0  0  0  0  0  0  0
   -0.7694   -3.3647    0.2538 H   0  0  0  0  0  0  0  0  0  0  0  0
   -1.3422   -1.1547    1.2143 H   0  0  0  0  0  0  0  0  0  0  0  0
    1.6546    2.0525   -0.0117 H   0  0  0  0  0  0  0  0  0  0  0  0
    1.1853    4.2994    0.9037 H   0  0  0  0  0  0  0  0  0  0  0  0
   -1.0349    4.8113    1.8771 H   0  0  0  0  0  0  0  0  0  0  0  0
   -2.7810    3.0455    1.9347 H   0  0  0  0  0  0  0  0  0  0  0  0
   -2.3021    0.8091    1.0708 H   0  0  0  0  0  0  0  0  0  0  0  0
    2.0333   -1.3792   -2.3007 H   0  0  0  0  0  0  0  0  0  0  0  0
  1  2  1  0
  2  3  2  0
  3  4  1  0
  4  5  2  0
  5  6  1  0
  6  7  2  0
  7  8  1  0
  8  9  2  0
  9 10  1  0
 10 11  2  0
  5 12  1  0
 12 13  2  0
 13  2  1  0
 11  6  1  0
  1 14  1  0
  1 15  1  0
  1 16  1  0
  3 17  1  0
  4 18  1  0
  7 19  1  0
  8 20  1  0
  9 21  1  0
 10 22  1  0
 11 23  1  0
 13 24  1  0
M  END
$$$$

     RDKit          3D

 24 25  0  0  0  0  0  0  0  0999 V2000
    4.1160   -0.3186    1.4703 C   0  0  0  0  0  0  0  0  0  0  0  0
    2.7279   -0.1693    0.9444 C   0  0  0  0  0  0  0  0  0  0  0  0
    2.4042    0.6730   -0.1226 C   0  0  0  0  0  0  0  0  0  0  0  0
    1.1045    0.7633   -0.5735 C   0  0  0  0  0  0  0  0  0  0  0  0
    0.1058    0.0015    0.0458 C   0  0  0  0  0  0  0  0  0  0  0  0
   -1.3215    0.0442   -0.3992 C   0  0  0  0  0  0  0  0  0  0  0  0
   -2.3038   -0.6092    0.3567 C   0  0  0  0  0  0  0  0  0  0  0  0
   -3.6376   -0.5850   -0.0360 C   0  0  0  0  0  0  0  0  0  0  0  0
   -4.0202    0.0869   -1.1943 C   0  0  0  0  0  0  0  0  0  0  0  0
   -3.0604    0.7308   -1.9547 C   0  0  0  0  0  0  0  0  0  0  0  0
   -1.7246    0.7142   -1.5649 C   0  0  0  0  0  0  0  0  0  0  0  0
    0.4061   -0.8047    1.0787 N   0  0  0  0  0  0  0  0  0  0  0  0
    1.6580   -0.8885    1.4970 C   0  0  0  0  0  0  0  0  0  0  0  0
    4.5057   -1.3112    1.2528 H   0  0  0  0  0  0  0  0  0  0  0  0
    4.7920    0.4131    1.0244 H   0  0  0  0  0  0  0  0  0  0  0  0
    4.1412   -0.1926    2.5538 H   0  0  0  0  0  0  0  0  0  0  0  0
    3.1816    1.2566   -0.5952 H   0  0  0  0  0  0  0  0  0  0  0  0
    0.8556    1.4159   -1.3978 H   0  0  0  0  0  0  0  0  0  0  0  0
   -2.0143   -1.1429    1.2518 H   0  0  0  0  0  0  0  0  0  0  0  0
   -4.3792   -1.0919    0.5652 H   0  0  0  0  0  0  0  0  0  0  0  0
   -5.0564    0.1010   -1.4952 H   0  0  0  0  0  0  0  0  0  0  0  0
   -3.3331    1.2487   -2.8614 H   0  0  0  0  0  0  0  0  0  0  0  0
   -0.9968    1.2303   -2.1751 H   0  0  0  0  0  0  0  0  0  0  0  0
    1.8494   -1.5655    2.3289 H   0  0  0  0  0  0  0  0  0  0  0  0
  1  2  1  0
  2  3  2  0
  3  4  1  0
  4  5  2  0
  5  6  1  0
  6  7  2  0
  7  8  1  0
  8  9  2  0
  9 10  1  0
 10 11  2  0
  5 12  1  0
 12 13  2  0
 13  2  1  0
 11  6  1  0
  1 14  1  0
  1 15  1  0
  1 16  1  0
  3 17  1  0
  4 18  1  0
  7 19  1  0
  8 20  1  0
  9 21  1  0
 10 22  1  0
 11 23  1  0
 13 24  1  0
M  END
$$$$
