
     RDKit          3D

 20 21  0  0  0  0  0  0  0  0999 V2000
   -3.0128   -3.2826    0.4353 Cl  0  0  0  0  0  0  0  0  0  0  0  0
   -1.5932   -2.5562   -0.2433 C   0  0  0  0  0  0  0  0  0  0  0  0
   -0.8590   -3.2143   -1.2076 C   0  0  0  0  0  0  0  0  0  0  0  0
    0.2517   -2.5144   -1.6599 C   0  0  0  0  0  0  0  0  0  0  0  0
    1.2882   -3.2070   -2.8597 Cl  0  0  0  0  0  0  0  0  0  0  0  0
    0.6021   -1.3192   -1.2330 N   0  0  0  0  0  0  0  0  0  0  0  0
   -0.2014   -0.7846   -0.2892 C   0  0  0  0  0  0  0  0  0  0  0  0
    0.1595    0.5674    0.2168 C   0  0  0  0  0  0  0  0  0  0  0  0
   -0.6088    1.1603    1.2218 C   0  0  0  0  0  0  0  0  0  0  0  0
   -0.2796    2.4233    1.6863 C   0  0  0  0  0  0  0  0  0  0  0  0
    0.8154    3.1059    1.1599 C   0  0  0  0  0  0  0  0  0  0  0  0
    1.5834    2.5159    0.1624 C   0  0  0  0  0  0  0  0  0  0  0  0
    1.2607    1.2498   -0.3107 C   0  0  0  0  0  0  0  0  0  0  0  0
   -1.2965   -1.3595    0.2327 N   0  0  0  0  0  0  0  0  0  0  0  0
   -1.1222   -4.2009   -1.5835 H   0  0  0  0  0  0  0  0  0  0  0  0
   -1.4583    0.6264    1.6286 H   0  0  0  0  0  0  0  0  0  0  0  0
   -0.8843    2.8740    2.4623 H   0  0  0  0  0  0  0  0  0  0  0  0
    1.0637    4.0918    1.5223 H   0  0  0  0  0  0  0  0  0  0  0  0
    2.4336    3.0380   -0.2566 H   0  0  0  0  0  0  0  0  0  0  0  0
    1.8578    0.7856   -1.0849 H   0  0  0  0  0  0  0  0  0  0  0  0
  1  2  1  0
  2  3  2  0
  3  4  1  0
  4  5  1  0
  4  6  2  0
  6  7  1  0
  7  8  1  0
  8  9  2  0
  9 10  1  0
 10 11  2  0
 11 12  1  0
 12 13  2  0
  7 14  2  0
 14  2  1  0
 13  8  1  0
  3 15  1  0
  9 16  1  0
 10 17  1  0
 11 18  1  0
 12 19  1  0
 13 20  1  0
M  END
$$$$

     RDKit          3D

 20 21  0  0  0  0  0  0  0  0999 V2000
   -0.4069    4.3939    0.7696 Cl  0  0  0  0  0  0  0  0  0  0  0  0
    0.4894    2.9208    0.6204 C   0  0  0  0  0  0  0  0  0  0  0  0
    1.8563    2.9042    0.8132 C   0  0  0  0  0  0  0  0  0  0  0  0
    2.4415    1.6539    0.6624 C   0  0  0  0  0  0  0  0  0  0  0  0
    4.1444    1.4484    0.8766 Cl  0  0  0  0  0  0  0  0  0  0  0  0
    1.7775    0.5584    0.3628 N   0  0  0  0  0  0  0  0  0  0  0  0
    0.4470    0.7100    0.1959 C   0  0  0  0  0  0  0  0  0  0  0  0
   -0.3330   -0.5109   -0.1478 C   0  0  0  0  0  0  0  0  0  0  0  0
   -1.7157   -0.4328   -0.3369 C   0  0  0  0  0  0  0  0  0  0  0  0
   -2.4349   -1.5760   -0.6461 C   0  0  0  0  0  0  0  0  0  0  0  0
   -1.7872   -2.8023   -0.7794 C   0  0  0  0  0  0  0  0  0  0  0  0
   -0.4105   -2.8795   -0.6014 C   0  0  0  0  0  0  0  0  0  0  0  0
    0.3180   -1.7421   -0.2817 C   0  0  0  0  0  0  0  0  0  0  0  0
   -0.2365    1.8580    0.3165 N   0  0  0  0  0  0  0  0  0  0  0  0
    2.4306    3.7915    1.0620 H   0  0  0  0  0  0  0  0  0  0  0  0
   -2.2165    0.5221   -0.2377 H   0  0  0  0  0  0  0  0  0  0  0  0
   -3.5060   -1.5039   -0.7844 H   0  0  0  0  0  0  0  0  0  0  0  0
   -2.3523   -3.6881   -1.0205 H   0  0  0  0  0  0  0  0  0  0  0  0
    0.1056   -3.8247   -0.7052 H   0  0  0  0  0  0  0  0  0  0  0  0
    1.3892   -1.8009   -0.1383 H   0  0  0  0  0  0  0  0  0  0  0  0
  1  2  1  0
  2  3  2  0
  3  4  1  0
  4  5  1  0
  4  6  2  0
  6  7  1  0
  7  8  1  0
  8  9  2  0
  9 10  1  0
 10 11  2  0
 11 12  1  0
 12 13  2  0
  7 14  2  0
 14  2  1  0
 13  8  1  0
  3 15  1  0
  9 16  1  0
 10 17  1  0
 11 18  1  0
 12 19  1  0
 13 20  1  0
M  END
$$$$

     RDKit          3D

 20 21  0  0  0  0  0  0  0  0999 V2000
    0.4268    2.7594    3.5026 Cl  0  0  0  0  0  0  0  0  0  0  0  0
   -0.4257    1.6175    2.5209 C   0  0  0  0  0  0  0  0  0  0  0  0
   -1.6986    1.2075    2.8634 C   0  0  0  0  0  0  0  0  0  0  0  0
   -2.2581    0.2865    1.9888 C   0  0  0  0  0  0  0  0  0  0  0  0
   -3.8495   -0.3318    2.2678 Cl  0  0  0  0  0  0  0  0  0  0  0  0
   -1.6534   -0.1779    0.9150 N   0  0  0  0  0  0  0  0  0  0  0  0
   -0.4098    0.3016    0.6937 C   0  0  0  0  0  0  0  0  0  0  0  0
    0.3023   -0.2090   -0.5091 C   0  0  0  0  0  0  0  0  0  0  0  0
    1.5704    0.2795   -0.8329 C   0  0  0  0  0  0  0  0  0  0  0  0
    2.2304   -0.1991   -1.9536 C   0  0  0  0  0  0  0  0  0  0  0  0
    1.6385   -1.1688   -2.7601 C   0  0  0  0  0  0  0  0  0  0  0  0
    0.3772   -1.6570   -2.4384 C   0  0  0  0  0  0  0  0  0  0  0  0
   -0.2922   -1.1816   -1.3174 C   0  0  0  0  0  0  0  0  0  0  0  0
    0.2365    1.1934    1.4568 N   0  0  0  0  0  0  0  0  0  0  0  0
   -2.2229    1.5705    3.7440 H   0  0  0  0  0  0  0  0  0  0  0  0
    2.0256    1.0328   -0.2024 H   0  0  0  0  0  0  0  0  0  0  0  0
    3.2134    0.1846   -2.1914 H   0  0  0  0  0  0  0  0  0  0  0  0
    2.1578   -1.5373   -3.6313 H   0  0  0  0  0  0  0  0  0  0  0  0
   -0.0958   -2.4101   -3.0539 H   0  0  0  0  0  0  0  0  0  0  0  0
   -1.2728   -1.5609   -1.0626 H   0  0  0  0  0  0  0  0  0  0  0  0
  1  2  1  0
  2  3  2  0
  3  4  1  0
  4  5  1  0
  4  6  2  0
  6  7  1  0
  7  8  1  0
  8  9  2  0
  9 10  1  0
 10 11  2  0
 11 12  1  0
 12 13  2  0
  7 14  2  0
 14  2  1  0
 13  8  1  0
  3 15  1  0
  9 16  1  0
 10 17  1  0
 11 18  1  0
 12 19  1  0
 13 20  1  0
M  END
$$$$

     RDKit          3D

 20 21  0  0  0  0  0  0  0  0999 V2000
   -2.9991   -2.1552    2.5406 Cl  0  0  0  0  0  0  0  0  0  0  0  0
   -2.3711   -1.5625    1.0404 C   0  0  0  0  0  0  0  0  0  0  0  0
   -3.0412   -1.7996   -0.1435 C   0  0  0  0  0  0  0  0  0  0  0  0
   -2.4251   -1.2732   -1.2705 C   0  0  0  0  0  0  0  0  0  0  0  0
   -3.1328   -1.4847   -2.8351 Cl  0  0  0  0  0  0  0  0  0  0  0  0
   -1.2960   -0.5987   -1.2481 N   0  0  0  0  0  0  0  0  0  0  0  0
   -0.7418   -0.4352   -0.0270 C   0  0  0  0  0  0  0  0  0  0  0  0
    0.5364    0.3234    0.0313 C   0  0  0  0  0  0  0  0  0  0  0  0
    1.1806    0.5213    1.2560 C   0  0  0  0  0  0  0  0  0  0  0  0
    2.3737    1.2245    1.3027 C   0  0  0  0  0  0  0  0  0  0  0  0
    2.9396    1.7302    0.1339 C   0  0  0  0  0  0  0  0  0  0  0  0
    2.2977    1.5351   -1.0851 C   0  0  0  0  0  0  0  0  0  0  0  0
    1.0973    0.8389   -1.1415 C   0  0  0  0  0  0  0  0  0  0  0  0
   -1.2330   -0.8954    1.1343 N   0  0  0  0  0  0  0  0  0  0  0  0
   -3.9762   -2.3504   -0.1934 H   0  0  0  0  0  0  0  0  0  0  0  0
    0.7374    0.1251    2.1607 H   0  0  0  0  0  0  0  0  0  0  0  0
    2.8643    1.3700    2.2571 H   0  0  0  0  0  0  0  0  0  0  0  0
    3.8713    2.2730    0.1760 H   0  0  0  0  0  0  0  0  0  0  0  0
    2.7240    1.9249   -2.0001 H   0  0  0  0  0  0  0  0  0  0  0  0
    0.5941    0.6884   -2.0887 H   0  0  0  0  0  0  0  0  0  0  0  0
  1  2  1  0
  2  3  2  0
  3  4  1  0
  4  5  1  0
  4  6  2  0
  6  7  1  0
  7  8  1  0
  8  9  2  0
  9 10  1  0
 10 11  2  0
 11 12  1  0
 12 13  2  0
  7 14  2  0
 14  2  1  0
 13  8  1  0
  3 15  1  0
  9 16  1  0
 10 17  1  0
 11 18  1  0
 12 19  1  0
 13 20  1  0
M  END
$$$$

     RDKit          3D

 20 21  0  0  0  0  0  0  0  0999 V2000
    3.8046    2.1386   -1.0328 Cl  0  0  0  0  0  0  0  0  0  0  0  0
    2.8635    0.7347   -0.6568 C   0  0  0  0  0  0  0  0  0  0  0  0
    3.4497   -0.5130   -0.6101 C   0  0  0  0  0  0  0  0  0  0  0  0
    2.5754   -1.5467   -0.3029 C   0  0  0  0  0  0  0  0  0  0  0  0
    3.1489   -3.1763   -0.1872 Cl  0  0  0  0  0  0  0  0  0  0  0  0
    1.2930   -1.3835   -0.0716 N   0  0  0  0  0  0  0  0  0  0  0  0
    0.8427   -0.1128   -0.1462 C   0  0  0  0  0  0  0  0  0  0  0  0
   -0.6098    0.0986    0.1106 C   0  0  0  0  0  0  0  0  0  0  0  0
   -1.1445    1.3891    0.1081 C   0  0  0  0  0  0  0  0  0  0  0  0
   -2.4968    1.5782    0.3442 C   0  0  0  0  0  0  0  0  0  0  0  0
   -3.3293    0.4879    0.5843 C   0  0  0  0  0  0  0  0  0  0  0  0
   -2.7990   -0.7969    0.5858 C   0  0  0  0  0  0  0  0  0  0  0  0
   -1.4442   -0.9967    0.3539 C   0  0  0  0  0  0  0  0  0  0  0  0
    1.5809    0.9704   -0.4290 N   0  0  0  0  0  0  0  0  0  0  0  0
    4.5068   -0.6799   -0.7988 H   0  0  0  0  0  0  0  0  0  0  0  0
   -0.4952    2.2351   -0.0784 H   0  0  0  0  0  0  0  0  0  0  0  0
   -2.8983    2.5828    0.3367 H   0  0  0  0  0  0  0  0  0  0  0  0
   -4.3814    0.6400    0.7657 H   0  0  0  0  0  0  0  0  0  0  0  0
   -3.4354   -1.6519    0.7706 H   0  0  0  0  0  0  0  0  0  0  0  0
   -1.0317   -1.9976    0.3539 H   0  0  0  0  0  0  0  0  0  0  0  0
  1  2  1  0
  2  3  2  0
  3  4  1  0
  4  5  1  0
  4  6  2  0
  6  7  1  0
  7  8  1  0
  8  9  2  0
  9 10  1  0
 10 11  2  0
 11 12  1  0
 12 13  2  0
  7 14  2  0
 14  2  1  0
 13  8  1  0
  3 15  1  0
  9 16  1  0
 10 17  1  0
 11 18  1  0
 12 19  1  0
 13 20  1  0
M  END
$$$$

     RDKit          3D

 20 21  0  0  0  0  0  0  0  0999 V2000
   -1.1106   -3.5045    2.5626 Cl  0  0  0  0  0  0  0  0  0  0  0  0
   -1.2202   -1.8519    2.0577 C   0  0  0  0  0  0  0  0  0  0  0  0
   -2.0854   -0.9806    2.6873 C   0  0  0  0  0  0  0  0  0  0  0  0
   -2.0767    0.3085    2.1720 C   0  0  0  0  0  0  0  0  0  0  0  0
   -3.1027    1.5278    2.8460 Cl  0  0  0  0  0  0  0  0  0  0  0  0
   -1.3148    0.7017    1.1752 N   0  0  0  0  0  0  0  0  0  0  0  0
   -0.5081   -0.2453    0.6510 C   0  0  0  0  0  0  0  0  0  0  0  0
    0.3716    0.1709   -0.4758 C   0  0  0  0  0  0  0  0  0  0  0  0
    1.2418   -0.7503   -1.0632 C   0  0  0  0  0  0  0  0  0  0  0  0
    2.0566   -0.3598   -2.1145 C   0  0  0  0  0  0  0  0  0  0  0  0
    2.0132    0.9478   -2.5912 C   0  0  0  0  0  0  0  0  0  0  0  0
    1.1481    1.8663   -2.0064 C   0  0  0  0  0  0  0  0  0  0  0  0
    0.3303    1.4853   -0.9500 C   0  0  0  0  0  0  0  0  0  0  0  0
   -0.4266   -1.5234    1.0509 N   0  0  0  0  0  0  0  0  0  0  0  0
   -2.7226   -1.2707    3.5191 H   0  0  0  0  0  0  0  0  0  0  0  0
    1.2706   -1.7667   -0.6894 H   0  0  0  0  0  0  0  0  0  0  0  0
    2.7247   -1.0841   -2.5628 H   0  0  0  0  0  0  0  0  0  0  0  0
    2.6477    1.2456   -3.4118 H   0  0  0  0  0  0  0  0  0  0  0  0
    1.1051    2.8856   -2.3668 H   0  0  0  0  0  0  0  0  0  0  0  0
   -0.3422    2.1979   -0.4898 H   0  0  0  0  0  0  0  0  0  0  0  0
  1  2  1  0
  2  3  2  0
  3  4  1  0
  4  5  1  0
  4  6  2  0
  6  7  1  0
  7  8  1  0
  8  9  2  0
  9 10  1  0
 10 11  2  0
 11 12  1  0
 12 13  2  0
  7 14  2  0
 14  2  1  0
 13  8  1  0
  3 15  1  0
  9 16  1  0
 10 17  1  0
 11 18  1  0
 12 19  1  0
 13 20  1  0
M  END
$$$$

     RDKit          3D

 20 21  0  0  0  0  0  0  0  0999 V2000
    2.3608   -1.2964    3.5719 Cl  0  0  0  0  0  0  0  0  0  0  0  0
    2.0508   -1.1894    1.8732 C   0  0  0  0  0  0  0  0  0  0  0  0
    2.9057   -1.7776    0.9629 C   0  0  0  0  0  0  0  0  0  0  0  0
    2.5355   -1.6095   -0.3646 C   0  0  0  0  0  0  0  0  0  0  0  0
    3.4968   -2.2868   -1.6362 Cl  0  0  0  0  0  0  0  0  0  0  0  0
    1.4618   -0.9558   -0.7569 N   0  0  0  0  0  0  0  0  0  0  0  0
    0.7111   -0.4262    0.2329 C   0  0  0  0  0  0  0  0  0  0  0  0
   -0.5091    0.3228   -0.1720 C   0  0  0  0  0  0  0  0  0  0  0  0
   -0.8478    0.4355   -1.5217 C   0  0  0  0  0  0  0  0  0  0  0  0
   -1.9950    1.1210   -1.8899 C   0  0  0  0  0  0  0  0  0  0  0  0
   -2.8098    1.7051   -0.9235 C   0  0  0  0  0  0  0  0  0  0  0  0
   -2.4707    1.5993    0.4207 C   0  0  0  0  0  0  0  0  0  0  0  0
   -1.3251    0.9128    0.8001 C   0  0  0  0  0  0  0  0  0  0  0  0
    0.9577   -0.5170    1.5489 N   0  0  0  0  0  0  0  0  0  0  0  0
    3.7952   -2.3294    1.2551 H   0  0  0  0  0  0  0  0  0  0  0  0
   -0.2091   -0.0122   -2.2720 H   0  0  0  0  0  0  0  0  0  0  0  0
   -2.2533    1.1923   -2.9385 H   0  0  0  0  0  0  0  0  0  0  0  0
   -3.7033    2.2343   -1.2173 H   0  0  0  0  0  0  0  0  0  0  0  0
   -3.0930    2.0531    1.1815 H   0  0  0  0  0  0  0  0  0  0  0  0
   -1.0591    0.8239    1.8455 H   0  0  0  0  0  0  0  0  0  0  0  0
  1  2  1  0
  2  3  2  0
  3  4  1  0
  4  5  1  0
  4  6  2  0
  6  7  1  0
  7  8  1  0
  8  9  2  0
  9 10  1  0
 10 11  2  0
 11 12  1  0
 12 13  2  0
  7 14  2  0
 14  2  1  0
 13  8  1  0
  3 15  1  0
  9 16  1  0
 10 17  1  0
 11 18  1  0
 12 19  1  0
 13 20  1  0
M  END
$$$$

     RDKit          3D

 20 21  0  0  0  0  0  0  0  0999 V2000
    1.6001   -0.7382    4.1215 Cl  0  0  0  0  0  0  0  0  0  0  0  0
    0.7674    0.1925    2.9202 C   0  0  0  0  0  0  0  0  0  0  0  0
    0.2280    1.4237    3.2315 C   0  0  0  0  0  0  0  0  0  0  0  0
   -0.4088    2.0553    2.1714 C   0  0  0  0  0  0  0  0  0  0  0  0
   -1.1499    3.6035    2.3923 Cl  0  0  0  0  0  0  0  0  0  0  0  0
   -0.5036    1.5533    0.9607 N   0  0  0  0  0  0  0  0  0  0  0  0
    0.0671    0.3419    0.7871 C   0  0  0  0  0  0  0  0  0  0  0  0
   -0.0299   -0.2537   -0.5733 C   0  0  0  0  0  0  0  0  0  0  0  0
    0.4959   -1.5248   -0.8212 C   0  0  0  0  0  0  0  0  0  0  0  0
    0.3905   -2.0793   -2.0868 C   0  0  0  0  0  0  0  0  0  0  0  0
   -0.2318   -1.3737   -3.1160 C   0  0  0  0  0  0  0  0  0  0  0  0
   -0.7501   -0.1060   -2.8710 C   0  0  0  0  0  0  0  0  0  0  0  0
   -0.6512    0.4567   -1.6057 C   0  0  0  0  0  0  0  0  0  0  0  0
    0.7099   -0.3701    1.7243 N   0  0  0  0  0  0  0  0  0  0  0  0
    0.2882    1.8671    4.2234 H   0  0  0  0  0  0  0  0  0  0  0  0
    0.9831   -2.0665   -0.0193 H   0  0  0  0  0  0  0  0  0  0  0  0
    0.7938   -3.0686   -2.2657 H   0  0  0  0  0  0  0  0  0  0  0  0
   -0.3105   -1.8106   -4.0995 H   0  0  0  0  0  0  0  0  0  0  0  0
   -1.2341    0.4541   -3.6605 H   0  0  0  0  0  0  0  0  0  0  0  0
   -1.0544    1.4433   -1.4134 H   0  0  0  0  0  0  0  0  0  0  0  0
  1  2  1  0
  2  3  2  0
  3  4  1  0
  4  5  1  0
  4  6  2  0
  6  7  1  0
  7  8  1  0
  8  9  2  0
  9 10  1  0
 10 11  2  0
 11 12  1  0
 12 13  2  0
  7 14  2  0
 14  2  1  0
 13  8  1  0
  3 15  1  0
  9 16  1  0
 10 17  1  0
 11 18  1  0
 12 19  1  0
 13 20  1  0
M  END
$$$$

     RDKit          3D

 20 21  0  0  0  0  0  0  0  0999 V2000
   -1.8629   -1.3058    3.8612 Cl  0  0  0  0  0  0  0  0  0  0  0  0
   -1.8984   -0.6009    2.2808 C   0  0  0  0  0  0  0  0  0  0  0  0
   -3.0757   -0.1117    1.7517 C   0  0  0  0  0  0  0  0  0  0  0  0
   -2.9534    0.4226    0.4765 C   0  0  0  0  0  0  0  0  0  0  0  0
   -4.3366    1.0744   -0.3343 Cl  0  0  0  0  0  0  0  0  0  0  0  0
   -1.8242    0.4827   -0.1931 N   0  0  0  0  0  0  0  0  0  0  0  0
   -0.7429   -0.0251    0.4370 C   0  0  0  0  0  0  0  0  0  0  0  0
    0.5494    0.0234   -0.3011 C   0  0  0  0  0  0  0  0  0  0  0  0
    1.7232   -0.4435    0.2975 C   0  0  0  0  0  0  0  0  0  0  0  0
    2.9200   -0.4008   -0.4001 C   0  0  0  0  0  0  0  0  0  0  0  0
    2.9617    0.1022   -1.6980 C   0  0  0  0  0  0  0  0  0  0  0  0
    1.7953    0.5664   -2.2947 C   0  0  0  0  0  0  0  0  0  0  0  0
    0.5923    0.5350   -1.6017 C   0  0  0  0  0  0  0  0  0  0  0  0
   -0.7295   -0.5707    1.6615 N   0  0  0  0  0  0  0  0  0  0  0  0
   -4.0246   -0.1422    2.2802 H   0  0  0  0  0  0  0  0  0  0  0  0
    1.6899   -0.8337    1.3066 H   0  0  0  0  0  0  0  0  0  0  0  0
    3.8221   -0.7636    0.0754 H   0  0  0  0  0  0  0  0  0  0  0  0
    3.8960    0.1305   -2.2373 H   0  0  0  0  0  0  0  0  0  0  0  0
    1.8128    0.9607   -3.3017 H   0  0  0  0  0  0  0  0  0  0  0  0
   -0.3145    0.9001   -2.0664 H   0  0  0  0  0  0  0  0  0  0  0  0
  1  2  1  0
  2  3  2  0
  3  4  1  0
  4  5  1  0
  4  6  2  0
  6  7  1  0
  7  8  1  0
  8  9  2  0
  9 10  1  0
 10 11  2  0
 11 12  1  0
 12 13  2  0
  7 14  2  0
 14  2  1  0
 13  8  1  0
  3 15  1  0
  9 16  1  0
 10 17  1  0
 11 18  1  0
 12 19  1  0
 13 20  1  0
M  END
$$$$

     RDKit          3D

 20 21  0  0  0  0  0  0  0  0999 V2000
   -0.4932   -4.4430    0.4172 Cl  0  0  0  0  0  0  0  0  0  0  0  0
    0.4221   -2.9986    0.1485 C   0  0  0  0  0  0  0  0  0  0  0  0
    1.7821   -3.0583   -0.0829 C   0  0  0  0  0  0  0  0  0  0  0  0
    2.3854   -1.8234   -0.2793 C   0  0  0  0  0  0  0  0  0  0  0  0
    4.0852   -1.7141   -0.5846 Cl  0  0  0  0  0  0  0  0  0  0  0  0
    1.7434   -0.6764   -0.2586 N   0  0  0  0  0  0  0  0  0  0  0  0
    0.4162   -0.7539   -0.0231 C   0  0  0  0  0  0  0  0  0  0  0  0
   -0.3281    0.5343    0.0128 C   0  0  0  0  0  0  0  0  0  0  0  0
   -1.7003    0.5525    0.2748 C   0  0  0  0  0  0  0  0  0  0  0  0
   -2.3808    1.7594    0.3111 C   0  0  0  0  0  0  0  0  0  0  0  0
   -1.7045    2.9572    0.0877 C   0  0  0  0  0  0  0  0  0  0  0  0
   -0.3401    2.9403   -0.1776 C   0  0  0  0  0  0  0  0  0  0  0  0
    0.3502    1.7355   -0.2173 C   0  0  0  0  0  0  0  0  0  0  0  0
   -0.2847   -1.8787    0.1805 N   0  0  0  0  0  0  0  0  0  0  0  0
    2.3408   -3.9896   -0.1122 H   0  0  0  0  0  0  0  0  0  0  0  0
   -2.2226   -0.3809    0.4424 H   0  0  0  0  0  0  0  0  0  0  0  0
   -3.4418    1.7620    0.5234 H   0  0  0  0  0  0  0  0  0  0  0  0
   -2.2406    3.8933    0.1175 H   0  0  0  0  0  0  0  0  0  0  0  0
    0.1976    3.8619   -0.3578 H   0  0  0  0  0  0  0  0  0  0  0  0
    1.4138    1.7205   -0.4225 H   0  0  0  0  0  0  0  0  0  0  0  0
  1  2  1  0
  2  3  2  0
  3  4  1  0
  4  5  1  0
  4  6  2  0
  6  7  1  0
  7  8  1  0
  8  9  2  0
  9 10  1  0
 10 11  2  0
 11 12  1  0
 12 13  2  0
  7 14  2  0
 14  2  1  0
 13  8  1  0
  3 15  1  0
  9 16  1  0
 10 17  1  0
 11 18  1  0
 12 19  1  0
 13 20  1  0
M  END
$$$$

     RDKit          3D

 20 21  0  0  0  0  0  0  0  0999 V2000
    0.0654    4.2854    1.2870 Cl  0  0  0  0  0  0  0  0  0  0  0  0
    0.0384    3.0205    0.1057 C   0  0  0  0  0  0  0  0  0  0  0  0
    0.0199    3.3143   -1.2435 C   0  0  0  0  0  0  0  0  0  0  0  0
    0.0036    2.2019   -2.0740 C   0  0  0  0  0  0  0  0  0  0  0  0
   -0.0142    2.3935   -3.7931 Cl  0  0  0  0  0  0  0  0  0  0  0  0
   -0.0002    0.9557   -1.6450 N   0  0  0  0  0  0  0  0  0  0  0  0
    0.0203    0.8062   -0.3030 C   0  0  0  0  0  0  0  0  0  0  0  0
    0.0065   -0.5867    0.2203 C   0  0  0  0  0  0  0  0  0  0  0  0
    0.0212   -0.8172    1.5988 C   0  0  0  0  0  0  0  0  0  0  0  0
   -0.0027   -2.1155    2.0816 C   0  0  0  0  0  0  0  0  0  0  0  0
   -0.0383   -3.1951    1.2021 C   0  0  0  0  0  0  0  0  0  0  0  0
   -0.0470   -2.9679   -0.1690 C   0  0  0  0  0  0  0  0  0  0  0  0
   -0.0233   -1.6697   -0.6637 C   0  0  0  0  0  0  0  0  0  0  0  0
    0.0435    1.7959    0.6034 N   0  0  0  0  0  0  0  0  0  0  0  0
    0.0157    4.3299   -1.6299 H   0  0  0  0  0  0  0  0  0  0  0  0
    0.0527    0.0226    2.2809 H   0  0  0  0  0  0  0  0  0  0  0  0
    0.0016   -2.2827    3.1507 H   0  0  0  0  0  0  0  0  0  0  0  0
   -0.0577   -4.2039    1.5852 H   0  0  0  0  0  0  0  0  0  0  0  0
   -0.0710   -3.7970   -0.8632 H   0  0  0  0  0  0  0  0  0  0  0  0
   -0.0344   -1.4902   -1.7313 H   0  0  0  0  0  0  0  0  0  0  0  0
  1  2  1  0
  2  3  2  0
  3  4  1  0
  4  5  1  0
  4  6  2  0
  6  7  1  0
  7  8  1  0
  8  9  2  0
  9 10  1  0
 10 11  2  0
 11 12  1  0
 12 13  2  0
  7 14  2  0
 14  2  1  0
 13  8  1  0
  3 15  1  0
  9 16  1  0
 10 17  1  0
 11 18  1  0
 12 19  1  0
 13 20  1  0
M  END
$$$$

     RDKit          3D

 20 21  0  0  0  0  0  0  0  0999 V2000
   -4.1418    1.1519   -1.2675 Cl  0  0  0  0  0  0  0  0  0  0  0  0
   -2.5423    1.4854   -0.6953 C   0  0  0  0  0  0  0  0  0  0  0  0
   -2.1445    2.7807   -0.4289 C   0  0  0  0  0  0  0  0  0  0  0  0
   -0.8357    2.9003    0.0201 C   0  0  0  0  0  0  0  0  0  0  0  0
   -0.1753    4.4545    0.4046 Cl  0  0  0  0  0  0  0  0  0  0  0  0
   -0.0167    1.8842    0.1850 N   0  0  0  0  0  0  0  0  0  0  0  0
   -0.5304    0.6694   -0.1068 C   0  0  0  0  0  0  0  0  0  0  0  0
    0.3742   -0.4968    0.0766 C   0  0  0  0  0  0  0  0  0  0  0  0
   -0.0903   -1.7905   -0.1730 C   0  0  0  0  0  0  0  0  0  0  0  0
    0.7581   -2.8731   -0.0017 C   0  0  0  0  0  0  0  0  0  0  0  0
    2.0729   -2.6789    0.4161 C   0  0  0  0  0  0  0  0  0  0  0  0
    2.5365   -1.3912    0.6639 C   0  0  0  0  0  0  0  0  0  0  0  0
    1.6938   -0.2991    0.4967 C   0  0  0  0  0  0  0  0  0  0  0  0
   -1.7740    0.4177   -0.5463 N   0  0  0  0  0  0  0  0  0  0  0  0
   -2.7982    3.6401   -0.5590 H   0  0  0  0  0  0  0  0  0  0  0  0
   -1.1122   -1.9363   -0.4991 H   0  0  0  0  0  0  0  0  0  0  0  0
    0.3883   -3.8703   -0.2026 H   0  0  0  0  0  0  0  0  0  0  0  0
    2.7292   -3.5258    0.5451 H   0  0  0  0  0  0  0  0  0  0  0  0
    3.5560   -1.2284    0.9891 H   0  0  0  0  0  0  0  0  0  0  0  0
    2.0521    0.7061    0.6830 H   0  0  0  0  0  0  0  0  0  0  0  0
  1  2  1  0
  2  3  2  0
  3  4  1  0
  4  5  1  0
  4  6  2  0
  6  7  1  0
  7  8  1  0
  8  9  2  0
  9 10  1  0
 10 11  2  0
 11 12  1  0
 12 13  2  0
  7 14  2  0
 14  2  1  0
 13  8  1  0
  3 15  1  0
  9 16  1  0
 10 17  1  0
 11 18  1  0
 12 19  1  0
 13 20  1  0
M  END
$$$$
