
     RDKit          3D

 34 36  0  0  0  0  0  0  0  0999 V2000
   -6.2014   -1.9928    0.8613 C   0  0  0  0  0  0  0  0  0  0  0  0
   -4.7725   -1.6110    0.6460 C   0  0  0  0  0  0  0  0  0  0  0  0
   -3.8564   -2.4434   -0.0012 C   0  0  0  0  0  0  0  0  0  0  0  0
   -2.5564   -2.0177   -0.1882 C   0  0  0  0  0  0  0  0  0  0  0  0
   -2.1657   -0.7689    0.2751 C   0  0  0  0  0  0  0  0  0  0  0  0
   -0.7840   -0.2713    0.1006 C   0  0  0  0  0  0  0  0  0  0  0  0
   -0.0110   -0.6520   -0.9997 C   0  0  0  0  0  0  0  0  0  0  0  0
    1.2724   -0.1891   -1.1507 C   0  0  0  0  0  0  0  0  0  0  0  0
    1.8444    0.6772   -0.2129 C   0  0  0  0  0  0  0  0  0  0  0  0
    3.2351    1.1844   -0.3815 C   0  0  0  0  0  0  0  0  0  0  0  0
    4.2293    0.3819   -0.9473 C   0  0  0  0  0  0  0  0  0  0  0  0
    5.5161    0.8541   -1.1101 C   0  0  0  0  0  0  0  0  0  0  0  0
    5.8475    2.1475   -0.7157 C   0  0  0  0  0  0  0  0  0  0  0  0
    4.8718    2.9542   -0.1500 C   0  0  0  0  0  0  0  0  0  0  0  0
    3.5792    2.4735    0.0195 C   0  0  0  0  0  0  0  0  0  0  0  0
    1.0637    1.0558    0.8858 C   0  0  0  0  0  0  0  0  0  0  0  0
   -0.2217    0.5951    1.0369 C   0  0  0  0  0  0  0  0  0  0  0  0
   -3.0282    0.0342    0.9112 N   0  0  0  0  0  0  0  0  0  0  0  0
   -4.2818   -0.3744    1.0794 C   0  0  0  0  0  0  0  0  0  0  0  0
   -6.5284   -1.7534    1.8756 H   0  0  0  0  0  0  0  0  0  0  0  0
   -6.3621   -3.0565    0.6987 H   0  0  0  0  0  0  0  0  0  0  0  0
   -6.8535   -1.4485    0.1793 H   0  0  0  0  0  0  0  0  0  0  0  0
   -4.1668   -3.4130   -0.3445 H   0  0  0  0  0  0  0  0  0  0  0  0
   -1.8447   -2.6660   -0.6804 H   0  0  0  0  0  0  0  0  0  0  0  0
   -0.4323   -1.3047   -1.7477 H   0  0  0  0  0  0  0  0  0  0  0  0
    1.8384   -0.4933   -2.0184 H   0  0  0  0  0  0  0  0  0  0  0  0
    3.9857   -0.6319   -1.2505 H   0  0  0  0  0  0  0  0  0  0  0  0
    6.2664    0.2091   -1.5421 H   0  0  0  0  0  0  0  0  0  0  0  0
    6.8556    2.5178   -0.8482 H   0  0  0  0  0  0  0  0  0  0  0  0
    5.1030    3.9630    0.1560 H   0  0  0  0  0  0  0  0  0  0  0  0
    2.8318    3.1179    0.4601 H   0  0  0  0  0  0  0  0  0  0  0  0
    1.4831    1.7156    1.6308 H   0  0  0  0  0  0  0  0  0  0  0  0
   -0.8127    0.8979    1.8869 H   0  0  0  0  0  0  0  0  0  0  0  0
   -4.9439    0.3088    1.5861 H   0  0  0  0  0  0  0  0  0  0  0  0
  1  2  1  0
  2  3  2  0
  3  4  1  0
  4  5  2  0
  5  6  1  0
  6  7  1  0
  7  8  2  0
  8  9  1  0
  9 10  1  0
 10 11  2  0
 11 12  1  0
 12 13  2  0
 13 14  1  0
 14 15  2  0
  9 16  2  0
 16 17  1  0
  5 18  1  0
 18 19  2  0
 19  2  1  0
 17  6  2  0
 15 10  1  0
  1 20  1  0
  1 21  1  0
  1 22  1  0
  3 23  1  0
  4 24  1  0
  7 25  1  0
  8 26  1  0
 11 27  1  0
 12 28  1  0
 13 29  1  0
 14 30  1  0
 15 31  1  0
 16 32  1  0
 17 33  1  0
 19 34  1  0
M  END
$$$$

     RDKit          3D

 34 36  0  0  0  0  0  0  0  0999 V2000
    2.0813    2.4047    5.7526 C   0  0  0  0  0  0  0  0  0  0  0  0
    1.6557    1.8066    4.4507 C   0  0  0  0  0  0  0  0  0  0  0  0
    2.2251    0.6412    3.9369 C   0  0  0  0  0  0  0  0  0  0  0  0
    1.7844    0.1399    2.7270 C   0  0  0  0  0  0  0  0  0  0  0  0
    0.7787    0.7964    2.0278 C   0  0  0  0  0  0  0  0  0  0  0  0
    0.2813    0.3096    0.7206 C   0  0  0  0  0  0  0  0  0  0  0  0
    1.0738   -0.4960   -0.1025 C   0  0  0  0  0  0  0  0  0  0  0  0
    0.5953   -0.9656   -1.2987 C   0  0  0  0  0  0  0  0  0  0  0  0
   -0.6883   -0.6375   -1.7430 C   0  0  0  0  0  0  0  0  0  0  0  0
   -1.2032   -1.1508   -3.0417 C   0  0  0  0  0  0  0  0  0  0  0  0
   -0.8728   -2.4346   -3.4825 C   0  0  0  0  0  0  0  0  0  0  0  0
   -1.3424   -2.9158   -4.6869 C   0  0  0  0  0  0  0  0  0  0  0  0
   -2.1615   -2.1261   -5.4890 C   0  0  0  0  0  0  0  0  0  0  0  0
   -2.4993   -0.8495   -5.0611 C   0  0  0  0  0  0  0  0  0  0  0  0
   -2.0232   -0.3675   -3.8474 C   0  0  0  0  0  0  0  0  0  0  0  0
   -1.4702    0.1875   -0.9281 C   0  0  0  0  0  0  0  0  0  0  0  0
   -0.9966    0.6510    0.2748 C   0  0  0  0  0  0  0  0  0  0  0  0
    0.2076    1.9055    2.5206 N   0  0  0  0  0  0  0  0  0  0  0  0
    0.6430    2.3879    3.6805 C   0  0  0  0  0  0  0  0  0  0  0  0
    2.9749    1.9211    6.1498 H   0  0  0  0  0  0  0  0  0  0  0  0
    2.2955    3.4700    5.6503 H   0  0  0  0  0  0  0  0  0  0  0  0
    1.2969    2.3098    6.5023 H   0  0  0  0  0  0  0  0  0  0  0  0
    3.0020    0.1401    4.4834 H   0  0  0  0  0  0  0  0  0  0  0  0
    2.2191   -0.7721    2.3444 H   0  0  0  0  0  0  0  0  0  0  0  0
    2.0807   -0.7384    0.1953 H   0  0  0  0  0  0  0  0  0  0  0  0
    1.2281   -1.5936   -1.9070 H   0  0  0  0  0  0  0  0  0  0  0  0
   -0.2410   -3.0616   -2.8622 H   0  0  0  0  0  0  0  0  0  0  0  0
   -1.0705   -3.9112   -5.0030 H   0  0  0  0  0  0  0  0  0  0  0  0
   -2.5270   -2.5037   -6.4330 H   0  0  0  0  0  0  0  0  0  0  0  0
   -3.1260   -0.2154   -5.6673 H   0  0  0  0  0  0  0  0  0  0  0  0
   -2.2885    0.6365   -3.5361 H   0  0  0  0  0  0  0  0  0  0  0  0
   -2.4682    0.4507   -1.2487 H   0  0  0  0  0  0  0  0  0  0  0  0
   -1.6113    1.2898    0.8885 H   0  0  0  0  0  0  0  0  0  0  0  0
    0.1669    3.2910    4.0325 H   0  0  0  0  0  0  0  0  0  0  0  0
  1  2  1  0
  2  3  2  0
  3  4  1  0
  4  5  2  0
  5  6  1  0
  6  7  1  0
  7  8  2  0
  8  9  1  0
  9 10  1  0
 10 11  2  0
 11 12  1  0
 12 13  2  0
 13 14  1  0
 14 15  2  0
  9 16  2  0
 16 17  1  0
  5 18  1  0
 18 19  2  0
 19  2  1  0
 17  6  2  0
 15 10  1  0
  1 20  1  0
  1 21  1  0
  1 22  1  0
  3 23  1  0
  4 24  1  0
  7 25  1  0
  8 26  1  0
 11 27  1  0
 12 28  1  0
 13 29  1  0
 14 30  1  0
 15 31  1  0
 16 32  1  0
 17 33  1  0
 19 34  1  0
M  END
$$$$

     RDKit          3D

 34 36  0  0  0  0  0  0  0  0999 V2000
   -2.6791    5.4223    2.5664 C   0  0  0  0  0  0  0  0  0  0  0  0
   -2.1315    4.1665    1.9664 C   0  0  0  0  0  0  0  0  0  0  0  0
   -2.8655    3.3765    1.0815 C   0  0  0  0  0  0  0  0  0  0  0  0
   -2.2983    2.2387    0.5445 C   0  0  0  0  0  0  0  0  0  0  0  0
   -0.9981    1.8916    0.8830 C   0  0  0  0  0  0  0  0  0  0  0  0
   -0.3439    0.6909    0.3193 C   0  0  0  0  0  0  0  0  0  0  0  0
   -0.6488    0.2370   -0.9686 C   0  0  0  0  0  0  0  0  0  0  0  0
   -0.0412   -0.8823   -1.4799 C   0  0  0  0  0  0  0  0  0  0  0  0
    0.8897   -1.6072   -0.7287 C   0  0  0  0  0  0  0  0  0  0  0  0
    1.5382   -2.8287   -1.2815 C   0  0  0  0  0  0  0  0  0  0  0  0
    1.8759   -2.9117   -2.6333 C   0  0  0  0  0  0  0  0  0  0  0  0
    2.4769   -4.0435   -3.1469 C   0  0  0  0  0  0  0  0  0  0  0  0
    2.7610   -5.1260   -2.3201 C   0  0  0  0  0  0  0  0  0  0  0  0
    2.4305   -5.0549   -0.9753 C   0  0  0  0  0  0  0  0  0  0  0  0
    1.8233   -3.9168   -0.4619 C   0  0  0  0  0  0  0  0  0  0  0  0
    1.1946   -1.1454    0.5566 C   0  0  0  0  0  0  0  0  0  0  0  0
    0.6001   -0.0153    1.0631 C   0  0  0  0  0  0  0  0  0  0  0  0
   -0.2860    2.6281    1.7439 N   0  0  0  0  0  0  0  0  0  0  0  0
   -0.8371    3.7262    2.2553 C   0  0  0  0  0  0  0  0  0  0  0  0
   -3.7671    5.4413    2.5288 H   0  0  0  0  0  0  0  0  0  0  0  0
   -2.3157    6.2990    2.0313 H   0  0  0  0  0  0  0  0  0  0  0  0
   -2.3727    5.5363    3.6057 H   0  0  0  0  0  0  0  0  0  0  0  0
   -3.8703    3.6574    0.8262 H   0  0  0  0  0  0  0  0  0  0  0  0
   -2.8678    1.6173   -0.1333 H   0  0  0  0  0  0  0  0  0  0  0  0
   -1.3599    0.7808   -1.5692 H   0  0  0  0  0  0  0  0  0  0  0  0
   -0.2971   -1.2119   -2.4767 H   0  0  0  0  0  0  0  0  0  0  0  0
    1.6673   -2.0699   -3.2855 H   0  0  0  0  0  0  0  0  0  0  0  0
    2.7321   -4.0771   -4.1947 H   0  0  0  0  0  0  0  0  0  0  0  0
    3.2352   -6.0116   -2.7231 H   0  0  0  0  0  0  0  0  0  0  0  0
    2.6362   -5.8825   -0.3150 H   0  0  0  0  0  0  0  0  0  0  0  0
    1.5667   -3.8828    0.5893 H   0  0  0  0  0  0  0  0  0  0  0  0
    1.9189   -1.6799    1.1520 H   0  0  0  0  0  0  0  0  0  0  0  0
    0.8538    0.3399    2.0502 H   0  0  0  0  0  0  0  0  0  0  0  0
   -0.2204    4.2978    2.9303 H   0  0  0  0  0  0  0  0  0  0  0  0
  1  2  1  0
  2  3  2  0
  3  4  1  0
  4  5  2  0
  5  6  1  0
  6  7  1  0
  7  8  2  0
  8  9  1  0
  9 10  1  0
 10 11  2  0
 11 12  1  0
 12 13  2  0
 13 14  1  0
 14 15  2  0
  9 16  2  0
 16 17  1  0
  5 18  1  0
 18 19  2  0
 19  2  1  0
 17  6  2  0
 15 10  1  0
  1 20  1  0
  1 21  1  0
  1 22  1  0
  3 23  1  0
  4 24  1  0
  7 25  1  0
  8 26  1  0
 11 27  1  0
 12 28  1  0
 13 29  1  0
 14 30  1  0
 15 31  1  0
 16 32  1  0
 17 33  1  0
 19 34  1  0
M  END
$$$$

     RDKit          3D

 34 36  0  0  0  0  0  0  0  0999 V2000
   -5.6716   -2.2348    2.4694 C   0  0  0  0  0  0  0  0  0  0  0  0
   -4.4110   -1.7133    1.8542 C   0  0  0  0  0  0  0  0  0  0  0  0
   -4.3965   -1.1215    0.5879 C   0  0  0  0  0  0  0  0  0  0  0  0
   -3.2106   -0.6477    0.0685 C   0  0  0  0  0  0  0  0  0  0  0  0
   -2.0334   -0.7633    0.8003 C   0  0  0  0  0  0  0  0  0  0  0  0
   -0.7293   -0.2842    0.2844 C   0  0  0  0  0  0  0  0  0  0  0  0
   -0.5239   -0.0406   -1.0788 C   0  0  0  0  0  0  0  0  0  0  0  0
    0.6854    0.4141   -1.5394 C   0  0  0  0  0  0  0  0  0  0  0  0
    1.7529    0.6404   -0.6659 C   0  0  0  0  0  0  0  0  0  0  0  0
    3.0649    1.1329   -1.1676 C   0  0  0  0  0  0  0  0  0  0  0  0
    3.5565    0.7268   -2.4104 C   0  0  0  0  0  0  0  0  0  0  0  0
    4.7742    1.1789   -2.8760 C   0  0  0  0  0  0  0  0  0  0  0  0
    5.5346    2.0589   -2.1124 C   0  0  0  0  0  0  0  0  0  0  0  0
    5.0562    2.4733   -0.8784 C   0  0  0  0  0  0  0  0  0  0  0  0
    3.8355    2.0100   -0.4089 C   0  0  0  0  0  0  0  0  0  0  0  0
    1.5480    0.3874    0.6952 C   0  0  0  0  0  0  0  0  0  0  0  0
    0.3387   -0.0690    1.1582 C   0  0  0  0  0  0  0  0  0  0  0  0
   -2.0361   -1.3152    2.0212 N   0  0  0  0  0  0  0  0  0  0  0  0
   -3.1850   -1.7718    2.5177 C   0  0  0  0  0  0  0  0  0  0  0  0
   -5.4743   -2.8504    3.3466 H   0  0  0  0  0  0  0  0  0  0  0  0
   -6.3208   -1.4168    2.7724 H   0  0  0  0  0  0  0  0  0  0  0  0
   -6.2412   -2.8356    1.7619 H   0  0  0  0  0  0  0  0  0  0  0  0
   -5.3118   -1.0378    0.0279 H   0  0  0  0  0  0  0  0  0  0  0  0
   -3.2097   -0.1778   -0.9016 H   0  0  0  0  0  0  0  0  0  0  0  0
   -1.3186   -0.2188   -1.7807 H   0  0  0  0  0  0  0  0  0  0  0  0
    0.8036    0.6083   -2.5954 H   0  0  0  0  0  0  0  0  0  0  0  0
    2.9766    0.0340   -3.0107 H   0  0  0  0  0  0  0  0  0  0  0  0
    5.1328    0.8425   -3.8358 H   0  0  0  0  0  0  0  0  0  0  0  0
    6.4858    2.4156   -2.4796 H   0  0  0  0  0  0  0  0  0  0  0  0
    5.6208    3.1647   -0.2751 H   0  0  0  0  0  0  0  0  0  0  0  0
    3.4772    2.3479    0.5549 H   0  0  0  0  0  0  0  0  0  0  0  0
    2.3585    0.5473    1.3893 H   0  0  0  0  0  0  0  0  0  0  0  0
    0.2045   -0.2715    2.2088 H   0  0  0  0  0  0  0  0  0  0  0  0
   -3.1332   -2.2132    3.4980 H   0  0  0  0  0  0  0  0  0  0  0  0
  1  2  1  0
  2  3  2  0
  3  4  1  0
  4  5  2  0
  5  6  1  0
  6  7  1  0
  7  8  2  0
  8  9  1  0
  9 10  1  0
 10 11  2  0
 11 12  1  0
 12 13  2  0
 13 14  1  0
 14 15  2  0
  9 16  2  0
 16 17  1  0
  5 18  1  0
 18 19  2  0
 19  2  1  0
 17  6  2  0
 15 10  1  0
  1 20  1  0
  1 21  1  0
  1 22  1  0
  3 23  1  0
  4 24  1  0
  7 25  1  0
  8 26  1  0
 11 27  1  0
 12 28  1  0
 13 29  1  0
 14 30  1  0
 15 31  1  0
 16 32  1  0
 17 33  1  0
 19 34  1  0
M  END
$$$$

     RDKit          3D

 34 36  0  0  0  0  0  0  0  0999 V2000
    5.0406    1.0095   -4.0939 C   0  0  0  0  0  0  0  0  0  0  0  0
    3.9443    0.7873   -3.1021 C   0  0  0  0  0  0  0  0  0  0  0  0
    3.8878    1.4949   -1.8956 C   0  0  0  0  0  0  0  0  0  0  0  0
    2.8387    1.2810   -1.0270 C   0  0  0  0  0  0  0  0  0  0  0  0
    1.8424    0.3675   -1.3504 C   0  0  0  0  0  0  0  0  0  0  0  0
    0.6811    0.1203   -0.4643 C   0  0  0  0  0  0  0  0  0  0  0  0
   -0.0306   -1.0808   -0.5545 C   0  0  0  0  0  0  0  0  0  0  0  0
   -1.1163   -1.3183    0.2552 C   0  0  0  0  0  0  0  0  0  0  0  0
   -1.5431   -0.3654    1.1872 C   0  0  0  0  0  0  0  0  0  0  0  0
   -2.7324   -0.6154    2.0440 C   0  0  0  0  0  0  0  0  0  0  0  0
   -3.8612   -1.2513    1.5245 C   0  0  0  0  0  0  0  0  0  0  0  0
   -4.9724   -1.4805    2.3116 C   0  0  0  0  0  0  0  0  0  0  0  0
   -4.9806   -1.0885    3.6479 C   0  0  0  0  0  0  0  0  0  0  0  0
   -3.8623   -0.4580    4.1765 C   0  0  0  0  0  0  0  0  0  0  0  0
   -2.7513   -0.2194    3.3798 C   0  0  0  0  0  0  0  0  0  0  0  0
   -0.8221    0.8271    1.2777 C   0  0  0  0  0  0  0  0  0  0  0  0
    0.2567    1.0679    0.4675 C   0  0  0  0  0  0  0  0  0  0  0  0
    1.8944   -0.3347   -2.4907 N   0  0  0  0  0  0  0  0  0  0  0  0
    2.9075   -0.1200   -3.3301 C   0  0  0  0  0  0  0  0  0  0  0  0
    5.0474    0.2483   -4.8755 H   0  0  0  0  0  0  0  0  0  0  0  0
    6.0181    1.0038   -3.6120 H   0  0  0  0  0  0  0  0  0  0  0  0
    4.9364    1.9793   -4.5777 H   0  0  0  0  0  0  0  0  0  0  0  0
    4.6654    2.1987   -1.6543 H   0  0  0  0  0  0  0  0  0  0  0  0
    2.8054    1.8198   -0.0914 H   0  0  0  0  0  0  0  0  0  0  0  0
    0.2818   -1.8257   -1.2693 H   0  0  0  0  0  0  0  0  0  0  0  0
   -1.6426   -2.2583    0.1765 H   0  0  0  0  0  0  0  0  0  0  0  0
   -3.8651   -1.5587    0.4848 H   0  0  0  0  0  0  0  0  0  0  0  0
   -5.8362   -1.9593    1.8786 H   0  0  0  0  0  0  0  0  0  0  0  0
   -5.8482   -1.2743    4.2634 H   0  0  0  0  0  0  0  0  0  0  0  0
   -3.8440   -0.1549    5.2120 H   0  0  0  0  0  0  0  0  0  0  0  0
   -1.8836    0.2679    3.8083 H   0  0  0  0  0  0  0  0  0  0  0  0
   -1.1271    1.5801    1.9907 H   0  0  0  0  0  0  0  0  0  0  0  0
    0.7743    2.0100    0.5394 H   0  0  0  0  0  0  0  0  0  0  0  0
    2.8967   -0.6998   -4.2369 H   0  0  0  0  0  0  0  0  0  0  0  0
  1  2  1  0
  2  3  2  0
  3  4  1  0
  4  5  2  0
  5  6  1  0
  6  7  1  0
  7  8  2  0
  8  9  1  0
  9 10  1  0
 10 11  2  0
 11 12  1  0
 12 13  2  0
 13 14  1  0
 14 15  2  0
  9 16  2  0
 16 17  1  0
  5 18  1  0
 18 19  2  0
 19  2  1  0
 17  6  2  0
 15 10  1  0
  1 20  1  0
  1 21  1  0
  1 22  1  0
  3 23  1  0
  4 24  1  0
  7 25  1  0
  8 26  1  0
 11 27  1  0
 12 28  1  0
 13 29  1  0
 14 30  1  0
 15 31  1  0
 16 32  1  0
 17 33  1  0
 19 34  1  0
M  END
$$$$

     RDKit          3D

 34 36  0  0  0  0  0  0  0  0999 V2000
   -5.7963    1.8079   -2.5057 C   0  0  0  0  0  0  0  0  0  0  0  0
   -4.4640    1.3625   -1.9972 C   0  0  0  0  0  0  0  0  0  0  0  0
   -3.6349    0.4935   -2.7060 C   0  0  0  0  0  0  0  0  0  0  0  0
   -2.4202    0.1173   -2.1697 C   0  0  0  0  0  0  0  0  0  0  0  0
   -2.0308    0.6070   -0.9302 C   0  0  0  0  0  0  0  0  0  0  0  0
   -0.7419    0.2217   -0.3132 C   0  0  0  0  0  0  0  0  0  0  0  0
   -0.1675   -1.0293   -0.5632 C   0  0  0  0  0  0  0  0  0  0  0  0
    1.0313   -1.3796    0.0055 C   0  0  0  0  0  0  0  0  0  0  0  0
    1.7188   -0.4945    0.8422 C   0  0  0  0  0  0  0  0  0  0  0  0
    3.0271   -0.8709    1.4458 C   0  0  0  0  0  0  0  0  0  0  0  0
    3.2710   -2.1776    1.8719 C   0  0  0  0  0  0  0  0  0  0  0  0
    4.4857   -2.5276    2.4264 C   0  0  0  0  0  0  0  0  0  0  0  0
    5.4943   -1.5789    2.5679 C   0  0  0  0  0  0  0  0  0  0  0  0
    5.2635   -0.2769    2.1481 C   0  0  0  0  0  0  0  0  0  0  0  0
    4.0386    0.0743    1.5997 C   0  0  0  0  0  0  0  0  0  0  0  0
    1.1388    0.7543    1.0914 C   0  0  0  0  0  0  0  0  0  0  0  0
   -0.0698    1.1000    0.5359 C   0  0  0  0  0  0  0  0  0  0  0  0
   -2.8069    1.4565   -0.2450 N   0  0  0  0  0  0  0  0  0  0  0  0
   -3.9810    1.8066   -0.7620 C   0  0  0  0  0  0  0  0  0  0  0  0
   -6.0191    1.3803   -3.4821 H   0  0  0  0  0  0  0  0  0  0  0  0
   -6.5968    1.5249   -1.8217 H   0  0  0  0  0  0  0  0  0  0  0  0
   -5.8406    2.8938   -2.5991 H   0  0  0  0  0  0  0  0  0  0  0  0
   -3.9404    0.1240   -3.6674 H   0  0  0  0  0  0  0  0  0  0  0  0
   -1.7713   -0.5447   -2.7244 H   0  0  0  0  0  0  0  0  0  0  0  0
   -0.6777   -1.7326   -1.2003 H   0  0  0  0  0  0  0  0  0  0  0  0
    1.4486   -2.3517   -0.2084 H   0  0  0  0  0  0  0  0  0  0  0  0
    2.4899   -2.9240    1.7702 H   0  0  0  0  0  0  0  0  0  0  0  0
    4.6443   -3.5409    2.7587 H   0  0  0  0  0  0  0  0  0  0  0  0
    6.4475   -1.8553    3.0001 H   0  0  0  0  0  0  0  0  0  0  0  0
    6.0346    0.4734    2.2369 H   0  0  0  0  0  0  0  0  0  0  0  0
    3.8727    1.0952    1.2774 H   0  0  0  0  0  0  0  0  0  0  0  0
    1.6484    1.4540    1.7354 H   0  0  0  0  0  0  0  0  0  0  0  0
   -0.5110    2.0597    0.7527 H   0  0  0  0  0  0  0  0  0  0  0  0
   -4.5848    2.4777   -0.1708 H   0  0  0  0  0  0  0  0  0  0  0  0
  1  2  1  0
  2  3  2  0
  3  4  1  0
  4  5  2  0
  5  6  1  0
  6  7  1  0
  7  8  2  0
  8  9  1  0
  9 10  1  0
 10 11  2  0
 11 12  1  0
 12 13  2  0
 13 14  1  0
 14 15  2  0
  9 16  2  0
 16 17  1  0
  5 18  1  0
 18 19  2  0
 19  2  1  0
 17  6  2  0
 15 10  1  0
  1 20  1  0
  1 21  1  0
  1 22  1  0
  3 23  1  0
  4 24  1  0
  7 25  1  0
  8 26  1  0
 11 27  1  0
 12 28  1  0
 13 29  1  0
 14 30  1  0
 15 31  1  0
 16 32  1  0
 17 33  1  0
 19 34  1  0
M  END
$$$$

     RDKit          3D

 34 36  0  0  0  0  0  0  0  0999 V2000
   -4.6833    4.5520    0.7367 C   0  0  0  0  0  0  0  0  0  0  0  0
   -3.6476    3.4962    0.5048 C   0  0  0  0  0  0  0  0  0  0  0  0
   -3.2935    3.0622   -0.7743 C   0  0  0  0  0  0  0  0  0  0  0  0
   -2.3114    2.1055   -0.9266 C   0  0  0  0  0  0  0  0  0  0  0  0
   -1.6761    1.5830    0.1916 C   0  0  0  0  0  0  0  0  0  0  0  0
   -0.6025    0.5711    0.0765 C   0  0  0  0  0  0  0  0  0  0  0  0
   -0.3589   -0.3236    1.1240 C   0  0  0  0  0  0  0  0  0  0  0  0
    0.6269   -1.2775    1.0195 C   0  0  0  0  0  0  0  0  0  0  0  0
    1.4261   -1.3666   -0.1263 C   0  0  0  0  0  0  0  0  0  0  0  0
    2.4965   -2.3941   -0.2385 C   0  0  0  0  0  0  0  0  0  0  0  0
    2.3024   -3.6835    0.2539 C   0  0  0  0  0  0  0  0  0  0  0  0
    3.2953   -4.6389    0.1517 C   0  0  0  0  0  0  0  0  0  0  0  0
    4.5123   -4.3279   -0.4454 C   0  0  0  0  0  0  0  0  0  0  0  0
    4.7163   -3.0481   -0.9402 C   0  0  0  0  0  0  0  0  0  0  0  0
    3.7159   -2.0918   -0.8385 C   0  0  0  0  0  0  0  0  0  0  0  0
    1.1881   -0.4570   -1.1606 C   0  0  0  0  0  0  0  0  0  0  0  0
    0.1986    0.4861   -1.0629 C   0  0  0  0  0  0  0  0  0  0  0  0
   -2.0158    1.9751    1.4260 N   0  0  0  0  0  0  0  0  0  0  0  0
   -2.9617    2.9016    1.5656 C   0  0  0  0  0  0  0  0  0  0  0  0
   -5.3892    4.6034   -0.0901 H   0  0  0  0  0  0  0  0  0  0  0  0
   -5.2466    4.3702    1.6530 H   0  0  0  0  0  0  0  0  0  0  0  0
   -4.2228    5.5330    0.8365 H   0  0  0  0  0  0  0  0  0  0  0  0
   -3.7937    3.4706   -1.6342 H   0  0  0  0  0  0  0  0  0  0  0  0
   -2.0492    1.7568   -1.9155 H   0  0  0  0  0  0  0  0  0  0  0  0
   -0.9511   -0.2542    2.0239 H   0  0  0  0  0  0  0  0  0  0  0  0
    0.7906   -1.9597    1.8408 H   0  0  0  0  0  0  0  0  0  0  0  0
    1.3542   -3.9323    0.7188 H   0  0  0  0  0  0  0  0  0  0  0  0
    3.1139   -5.6293    0.5339 H   0  0  0  0  0  0  0  0  0  0  0  0
    5.2901   -5.0745   -0.5218 H   0  0  0  0  0  0  0  0  0  0  0  0
    5.6534   -2.7825   -1.4030 H   0  0  0  0  0  0  0  0  0  0  0  0
    3.8890   -1.0950   -1.2263 H   0  0  0  0  0  0  0  0  0  0  0  0
    1.7880   -0.5026   -2.0580 H   0  0  0  0  0  0  0  0  0  0  0  0
    0.0425    1.1812   -1.8722 H   0  0  0  0  0  0  0  0  0  0  0  0
   -3.1969    3.1915    2.5774 H   0  0  0  0  0  0  0  0  0  0  0  0
  1  2  1  0
  2  3  2  0
  3  4  1  0
  4  5  2  0
  5  6  1  0
  6  7  1  0
  7  8  2  0
  8  9  1  0
  9 10  1  0
 10 11  2  0
 11 12  1  0
 12 13  2  0
 13 14  1  0
 14 15  2  0
  9 16  2  0
 16 17  1  0
  5 18  1  0
 18 19  2  0
 19  2  1  0
 17  6  2  0
 15 10  1  0
  1 20  1  0
  1 21  1  0
  1 22  1  0
  3 23  1  0
  4 24  1  0
  7 25  1  0
  8 26  1  0
 11 27  1  0
 12 28  1  0
 13 29  1  0
 14 30  1  0
 15 31  1  0
 16 32  1  0
 17 33  1  0
 19 34  1  0
M  END
$$$$

     RDKit          3D

 34 36  0  0  0  0  0  0  0  0999 V2000
    4.3998   -2.4191   -4.2439 C   0  0  0  0  0  0  0  0  0  0  0  0
    3.3625   -1.8609   -3.3240 C   0  0  0  0  0  0  0  0  0  0  0  0
    2.0874   -1.5071   -3.7767 C   0  0  0  0  0  0  0  0  0  0  0  0
    1.1647   -0.9939   -2.8902 C   0  0  0  0  0  0  0  0  0  0  0  0
    1.5024   -0.8328   -1.5518 C   0  0  0  0  0  0  0  0  0  0  0  0
    0.5505   -0.2812   -0.5600 C   0  0  0  0  0  0  0  0  0  0  0  0
   -0.5139    0.5430   -0.9416 C   0  0  0  0  0  0  0  0  0  0  0  0
   -1.3954    1.0307   -0.0093 C   0  0  0  0  0  0  0  0  0  0  0  0
   -1.2534    0.7304    1.3477 C   0  0  0  0  0  0  0  0  0  0  0  0
   -2.2156    1.2562    2.3549 C   0  0  0  0  0  0  0  0  0  0  0  0
   -3.5738    1.3792    2.0529 C   0  0  0  0  0  0  0  0  0  0  0  0
   -4.4669    1.8660    2.9858 C   0  0  0  0  0  0  0  0  0  0  0  0
   -4.0276    2.2465    4.2511 C   0  0  0  0  0  0  0  0  0  0  0  0
   -2.6808    2.1312    4.5620 C   0  0  0  0  0  0  0  0  0  0  0  0
   -1.7855    1.6353    3.6229 C   0  0  0  0  0  0  0  0  0  0  0  0
   -0.1791   -0.0808    1.7276 C   0  0  0  0  0  0  0  0  0  0  0  0
    0.7009   -0.5736    0.7958 C   0  0  0  0  0  0  0  0  0  0  0  0
    2.7146   -1.1820   -1.0996 N   0  0  0  0  0  0  0  0  0  0  0  0
    3.6061   -1.6695   -1.9638 C   0  0  0  0  0  0  0  0  0  0  0  0
    4.5233   -1.7898   -5.1264 H   0  0  0  0  0  0  0  0  0  0  0  0
    4.1124   -3.4062   -4.5999 H   0  0  0  0  0  0  0  0  0  0  0  0
    5.3713   -2.5088   -3.7586 H   0  0  0  0  0  0  0  0  0  0  0  0
    1.8347   -1.6368   -4.8141 H   0  0  0  0  0  0  0  0  0  0  0  0
    0.1783   -0.7319   -3.2431 H   0  0  0  0  0  0  0  0  0  0  0  0
   -0.6392    0.8140   -1.9766 H   0  0  0  0  0  0  0  0  0  0  0  0
   -2.2054    1.6664   -0.3363 H   0  0  0  0  0  0  0  0  0  0  0  0
   -3.9288    1.0817    1.0718 H   0  0  0  0  0  0  0  0  0  0  0  0
   -5.5111    1.9408    2.7274 H   0  0  0  0  0  0  0  0  0  0  0  0
   -4.7267    2.6294    4.9795 H   0  0  0  0  0  0  0  0  0  0  0  0
   -2.3133    2.4264    5.5317 H   0  0  0  0  0  0  0  0  0  0  0  0
   -0.7387    1.5510    3.8848 H   0  0  0  0  0  0  0  0  0  0  0  0
   -0.0467   -0.3339    2.7682 H   0  0  0  0  0  0  0  0  0  0  0  0
    1.5233   -1.1991    1.1065 H   0  0  0  0  0  0  0  0  0  0  0  0
    4.5697   -1.9207   -1.5543 H   0  0  0  0  0  0  0  0  0  0  0  0
  1  2  1  0
  2  3  2  0
  3  4  1  0
  4  5  2  0
  5  6  1  0
  6  7  1  0
  7  8  2  0
  8  9  1  0
  9 10  1  0
 10 11  2  0
 11 12  1  0
 12 13  2  0
 13 14  1  0
 14 15  2  0
  9 16  2  0
 16 17  1  0
  5 18  1  0
 18 19  2  0
 19  2  1  0
 17  6  2  0
 15 10  1  0
  1 20  1  0
  1 21  1  0
  1 22  1  0
  3 23  1  0
  4 24  1  0
  7 25  1  0
  8 26  1  0
 11 27  1  0
 12 28  1  0
 13 29  1  0
 14 30  1  0
 15 31  1  0
 16 32  1  0
 17 33  1  0
 19 34  1  0
M  END
$$$$

     RDKit          3D

 34 36  0  0  0  0  0  0  0  0999 V2000
   -2.0580   -6.2138    0.5632 C   0  0  0  0  0  0  0  0  0  0  0  0
   -1.5550   -4.8096    0.4829 C   0  0  0  0  0  0  0  0  0  0  0  0
   -0.4067   -4.3975    1.1637 C   0  0  0  0  0  0  0  0  0  0  0  0
    0.0247   -3.0940    1.0484 C   0  0  0  0  0  0  0  0  0  0  0  0
   -0.6769   -2.1998    0.2502 C   0  0  0  0  0  0  0  0  0  0  0  0
   -0.2448   -0.7936    0.0792 C   0  0  0  0  0  0  0  0  0  0  0  0
    1.1011   -0.4251    0.1786 C   0  0  0  0  0  0  0  0  0  0  0  0
    1.4849    0.8838    0.0204 C   0  0  0  0  0  0  0  0  0  0  0  0
    0.5464    1.8864   -0.2399 C   0  0  0  0  0  0  0  0  0  0  0  0
    0.9682    3.3049   -0.4019 C   0  0  0  0  0  0  0  0  0  0  0  0
    2.1692    3.6287   -1.0346 C   0  0  0  0  0  0  0  0  0  0  0  0
    2.5623    4.9436   -1.1814 C   0  0  0  0  0  0  0  0  0  0  0  0
    1.7644    5.9742   -0.6961 C   0  0  0  0  0  0  0  0  0  0  0  0
    0.5683    5.6649   -0.0663 C   0  0  0  0  0  0  0  0  0  0  0  0
    0.1739    4.3424    0.0778 C   0  0  0  0  0  0  0  0  0  0  0  0
   -0.7984    1.5131   -0.3403 C   0  0  0  0  0  0  0  0  0  0  0  0
   -1.1828    0.2028   -0.1913 C   0  0  0  0  0  0  0  0  0  0  0  0
   -1.7878   -2.5728   -0.3946 N   0  0  0  0  0  0  0  0  0  0  0  0
   -2.1987   -3.8366   -0.2793 C   0  0  0  0  0  0  0  0  0  0  0  0
   -2.1818   -6.5262    1.5993 H   0  0  0  0  0  0  0  0  0  0  0  0
   -1.3533   -6.9076    0.1095 H   0  0  0  0  0  0  0  0  0  0  0  0
   -3.0138   -6.3351    0.0555 H   0  0  0  0  0  0  0  0  0  0  0  0
    0.1254   -5.1013    1.7791 H   0  0  0  0  0  0  0  0  0  0  0  0
    0.8991   -2.7689    1.5958 H   0  0  0  0  0  0  0  0  0  0  0  0
    1.8496   -1.1766    0.3740 H   0  0  0  0  0  0  0  0  0  0  0  0
    2.5299    1.1403    0.1141 H   0  0  0  0  0  0  0  0  0  0  0  0
    2.8009    2.8342   -1.4205 H   0  0  0  0  0  0  0  0  0  0  0  0
    3.4939    5.1662   -1.6782 H   0  0  0  0  0  0  0  0  0  0  0  0
    2.0744    7.0035   -0.8105 H   0  0  0  0  0  0  0  0  0  0  0  0
   -0.0624    6.4474    0.3236 H   0  0  0  0  0  0  0  0  0  0  0  0
   -0.7603    4.1199    0.5743 H   0  0  0  0  0  0  0  0  0  0  0  0
   -1.5442    2.2658   -0.5480 H   0  0  0  0  0  0  0  0  0  0  0  0
   -2.2239   -0.0704   -0.2805 H   0  0  0  0  0  0  0  0  0  0  0  0
   -3.0880   -4.0932   -0.8265 H   0  0  0  0  0  0  0  0  0  0  0  0
  1  2  1  0
  2  3  2  0
  3  4  1  0
  4  5  2  0
  5  6  1  0
  6  7  1  0
  7  8  2  0
  8  9  1  0
  9 10  1  0
 10 11  2  0
 11 12  1  0
 12 13  2  0
 13 14  1  0
 14 15  2  0
  9 16  2  0
 16 17  1  0
  5 18  1  0
 18 19  2  0
 19  2  1  0
 17  6  2  0
 15 10  1  0
  1 20  1  0
  1 21  1  0
  1 22  1  0
  3 23  1  0
  4 24  1  0
  7 25  1  0
  8 26  1  0
 11 27  1  0
 12 28  1  0
 13 29  1  0
 14 30  1  0
 15 31  1  0
 16 32  1  0
 17 33  1  0
 19 34  1  0
M  END
$$$$

     RDKit          3D

 34 36  0  0  0  0  0  0  0  0999 V2000
    5.0128    3.3348   -2.6367 C   0  0  0  0  0  0  0  0  0  0  0  0
    3.8625    2.5503   -2.0917 C   0  0  0  0  0  0  0  0  0  0  0  0
    2.9441    1.8949   -2.9175 C   0  0  0  0  0  0  0  0  0  0  0  0
    1.8988    1.1919   -2.3536 C   0  0  0  0  0  0  0  0  0  0  0  0
    1.7593    1.1489   -0.9719 C   0  0  0  0  0  0  0  0  0  0  0  0
    0.6553    0.4045   -0.3263 C   0  0  0  0  0  0  0  0  0  0  0  0
    0.1296   -0.7527   -0.9086 C   0  0  0  0  0  0  0  0  0  0  0  0
   -0.9006   -1.4338   -0.3118 C   0  0  0  0  0  0  0  0  0  0  0  0
   -1.4620   -0.9890    0.8893 C   0  0  0  0  0  0  0  0  0  0  0  0
   -2.5971   -1.7159    1.5245 C   0  0  0  0  0  0  0  0  0  0  0  0
   -3.5638   -2.3539    0.7437 C   0  0  0  0  0  0  0  0  0  0  0  0
   -4.6211   -3.0232    1.3268 C   0  0  0  0  0  0  0  0  0  0  0  0
   -4.7390   -3.0797    2.7124 C   0  0  0  0  0  0  0  0  0  0  0  0
   -3.7849   -2.4533    3.4999 C   0  0  0  0  0  0  0  0  0  0  0  0
   -2.7264   -1.7732    2.9099 C   0  0  0  0  0  0  0  0  0  0  0  0
   -0.9246    0.1639    1.4730 C   0  0  0  0  0  0  0  0  0  0  0  0
    0.1127    0.8425    0.8811 C   0  0  0  0  0  0  0  0  0  0  0  0
    2.6174    1.7870   -0.1674 N   0  0  0  0  0  0  0  0  0  0  0  0
    3.6347    2.4487   -0.7149 C   0  0  0  0  0  0  0  0  0  0  0  0
    5.8684    3.3121   -1.9616 H   0  0  0  0  0  0  0  0  0  0  0  0
    5.3352    2.9536   -3.6042 H   0  0  0  0  0  0  0  0  0  0  0  0
    4.7395    4.3810   -2.7772 H   0  0  0  0  0  0  0  0  0  0  0  0
    3.0526    1.9505   -3.9860 H   0  0  0  0  0  0  0  0  0  0  0  0
    1.1832    0.6871   -2.9888 H   0  0  0  0  0  0  0  0  0  0  0  0
    0.5489   -1.1236   -1.8288 H   0  0  0  0  0  0  0  0  0  0  0  0
   -1.2703   -2.3355   -0.7760 H   0  0  0  0  0  0  0  0  0  0  0  0
   -3.4874   -2.3125   -0.3378 H   0  0  0  0  0  0  0  0  0  0  0  0
   -5.3604   -3.4958    0.6978 H   0  0  0  0  0  0  0  0  0  0  0  0
   -5.5659   -3.6069    3.1692 H   0  0  0  0  0  0  0  0  0  0  0  0
   -3.8492   -2.4944    4.5757 H   0  0  0  0  0  0  0  0  0  0  0  0
   -1.9922   -1.2934    3.5428 H   0  0  0  0  0  0  0  0  0  0  0  0
   -1.3431    0.5265    2.3990 H   0  0  0  0  0  0  0  0  0  0  0  0
    0.5174    1.7305    1.3451 H   0  0  0  0  0  0  0  0  0  0  0  0
    4.3154    2.9283   -0.0295 H   0  0  0  0  0  0  0  0  0  0  0  0
  1  2  1  0
  2  3  2  0
  3  4  1  0
  4  5  2  0
  5  6  1  0
  6  7  1  0
  7  8  2  0
  8  9  1  0
  9 10  1  0
 10 11  2  0
 11 12  1  0
 12 13  2  0
 13 14  1  0
 14 15  2  0
  9 16  2  0
 16 17  1  0
  5 18  1  0
 18 19  2  0
 19  2  1  0
 17  6  2  0
 15 10  1  0
  1 20  1  0
  1 21  1  0
  1 22  1  0
  3 23  1  0
  4 24  1  0
  7 25  1  0
  8 26  1  0
 11 27  1  0
 12 28  1  0
 13 29  1  0
 14 30  1  0
 15 31  1  0
 16 32  1  0
 17 33  1  0
 19 34  1  0
M  END
$$$$

     RDKit          3D

 34 36  0  0  0  0  0  0  0  0999 V2000
    5.4977    3.3395   -1.3577 C   0  0  0  0  0  0  0  0  0  0  0  0
    4.2136    2.6135   -1.1131 C   0  0  0  0  0  0  0  0  0  0  0  0
    3.1680    2.5996   -2.0351 C   0  0  0  0  0  0  0  0  0  0  0  0
    2.0109    1.9005   -1.7534 C   0  0  0  0  0  0  0  0  0  0  0  0
    1.8941    1.2103   -0.5546 C   0  0  0  0  0  0  0  0  0  0  0  0
    0.6810    0.4341   -0.2050 C   0  0  0  0  0  0  0  0  0  0  0  0
   -0.2104   -0.0194   -1.1847 C   0  0  0  0  0  0  0  0  0  0  0  0
   -1.3299   -0.7342   -0.8419 C   0  0  0  0  0  0  0  0  0  0  0  0
   -1.6175   -1.0311    0.4931 C   0  0  0  0  0  0  0  0  0  0  0  0
   -2.8320   -1.8079    0.8605 C   0  0  0  0  0  0  0  0  0  0  0  0
   -3.2908   -2.8439    0.0446 C   0  0  0  0  0  0  0  0  0  0  0  0
   -4.4168   -3.5666    0.3804 C   0  0  0  0  0  0  0  0  0  0  0  0
   -5.1177   -3.2746    1.5455 C   0  0  0  0  0  0  0  0  0  0  0  0
   -4.6732   -2.2464    2.3639 C   0  0  0  0  0  0  0  0  0  0  0  0
   -3.5383   -1.5226    2.0244 C   0  0  0  0  0  0  0  0  0  0  0  0
   -0.7255   -0.5767    1.4701 C   0  0  0  0  0  0  0  0  0  0  0  0
    0.4013    0.1283    1.1281 C   0  0  0  0  0  0  0  0  0  0  0  0
    2.8878    1.2239    0.3462 N   0  0  0  0  0  0  0  0  0  0  0  0
    3.9990    1.8961    0.0672 C   0  0  0  0  0  0  0  0  0  0  0  0
    5.4581    3.9269   -2.2746 H   0  0  0  0  0  0  0  0  0  0  0  0
    5.7351    4.0194   -0.5387 H   0  0  0  0  0  0  0  0  0  0  0  0
    6.3303    2.6456   -1.4413 H   0  0  0  0  0  0  0  0  0  0  0  0
    3.2627    3.1351   -2.9607 H   0  0  0  0  0  0  0  0  0  0  0  0
    1.1971    1.9084   -2.4648 H   0  0  0  0  0  0  0  0  0  0  0  0
   -0.0141    0.1839   -2.2224 H   0  0  0  0  0  0  0  0  0  0  0  0
   -2.0041   -1.0597   -1.6198 H   0  0  0  0  0  0  0  0  0  0  0  0
   -2.7478   -3.0863   -0.8624 H   0  0  0  0  0  0  0  0  0  0  0  0
   -4.7450   -4.3657   -0.2663 H   0  0  0  0  0  0  0  0  0  0  0  0
   -6.0004   -3.8418    1.8067 H   0  0  0  0  0  0  0  0  0  0  0  0
   -5.2026   -1.9986    3.2694 H   0  0  0  0  0  0  0  0  0  0  0  0
   -3.2051   -0.7218    2.6730 H   0  0  0  0  0  0  0  0  0  0  0  0
   -0.9258   -0.7941    2.5086 H   0  0  0  0  0  0  0  0  0  0  0  0
    1.0897    0.4517    1.8940 H   0  0  0  0  0  0  0  0  0  0  0  0
    4.7710    1.8745    0.8209 H   0  0  0  0  0  0  0  0  0  0  0  0
  1  2  1  0
  2  3  2  0
  3  4  1  0
  4  5  2  0
  5  6  1  0
  6  7  1  0
  7  8  2  0
  8  9  1  0
  9 10  1  0
 10 11  2  0
 11 12  1  0
 12 13  2  0
 13 14  1  0
 14 15  2  0
  9 16  2  0
 16 17  1  0
  5 18  1  0
 18 19  2  0
 19  2  1  0
 17  6  2  0
 15 10  1  0
  1 20  1  0
  1 21  1  0
  1 22  1  0
  3 23  1  0
  4 24  1  0
  7 25  1  0
  8 26  1  0
 11 27  1  0
 12 28  1  0
 13 29  1  0
 14 30  1  0
 15 31  1  0
 16 32  1  0
 17 33  1  0
 19 34  1  0
M  END
$$$$

     RDKit          3D

 34 36  0  0  0  0  0  0  0  0999 V2000
    3.5593   -1.9794   -5.1617 C   0  0  0  0  0  0  0  0  0  0  0  0
    2.7010   -1.5259   -4.0235 C   0  0  0  0  0  0  0  0  0  0  0  0
    1.3053   -1.5307   -4.0976 C   0  0  0  0  0  0  0  0  0  0  0  0
    0.5601   -1.1242   -3.0093 C   0  0  0  0  0  0  0  0  0  0  0  0
    1.1993   -0.7115   -1.8477 C   0  0  0  0  0  0  0  0  0  0  0  0
    0.4431   -0.2701   -0.6531 C   0  0  0  0  0  0  0  0  0  0  0  0
   -0.8453   -0.7474   -0.3919 C   0  0  0  0  0  0  0  0  0  0  0  0
   -1.5445   -0.3202    0.7087 C   0  0  0  0  0  0  0  0  0  0  0  0
   -0.9896    0.5967    1.6062 C   0  0  0  0  0  0  0  0  0  0  0  0
   -1.7490    1.0640    2.7990 C   0  0  0  0  0  0  0  0  0  0  0  0
   -3.1313    1.2518    2.7389 C   0  0  0  0  0  0  0  0  0  0  0  0
   -3.8362    1.6969    3.8388 C   0  0  0  0  0  0  0  0  0  0  0  0
   -3.1775    1.9610    5.0363 C   0  0  0  0  0  0  0  0  0  0  0  0
   -1.8056    1.7727    5.1114 C   0  0  0  0  0  0  0  0  0  0  0  0
   -1.0981    1.3302    4.0010 C   0  0  0  0  0  0  0  0  0  0  0  0
    0.3031    1.0642    1.3463 C   0  0  0  0  0  0  0  0  0  0  0  0
    1.0045    0.6367    0.2452 C   0  0  0  0  0  0  0  0  0  0  0  0
    2.5350   -0.6885   -1.7648 N   0  0  0  0  0  0  0  0  0  0  0  0
    3.2503   -1.0887   -2.8151 C   0  0  0  0  0  0  0  0  0  0  0  0
    3.0476   -1.8671   -6.1171 H   0  0  0  0  0  0  0  0  0  0  0  0
    4.4935   -1.4169   -5.2129 H   0  0  0  0  0  0  0  0  0  0  0  0
    3.8206   -3.0309   -5.0550 H   0  0  0  0  0  0  0  0  0  0  0  0
    0.8215   -1.8464   -5.0032 H   0  0  0  0  0  0  0  0  0  0  0  0
   -0.5174   -1.1184   -3.0758 H   0  0  0  0  0  0  0  0  0  0  0  0
   -1.2902   -1.4717   -1.0534 H   0  0  0  0  0  0  0  0  0  0  0  0
   -2.5380   -0.7102    0.8826 H   0  0  0  0  0  0  0  0  0  0  0  0
   -3.6559    1.0514    1.8116 H   0  0  0  0  0  0  0  0  0  0  0  0
   -4.9012    1.8476    3.7588 H   0  0  0  0  0  0  0  0  0  0  0  0
   -3.7316    2.3070    5.8977 H   0  0  0  0  0  0  0  0  0  0  0  0
   -1.2771    1.9638    6.0330 H   0  0  0  0  0  0  0  0  0  0  0  0
   -0.0299    1.1813    4.0796 H   0  0  0  0  0  0  0  0  0  0  0  0
    0.7501    1.7803    2.0188 H   0  0  0  0  0  0  0  0  0  0  0  0
    2.0037    1.0011    0.0632 H   0  0  0  0  0  0  0  0  0  0  0  0
    4.3203   -1.0586   -2.6949 H   0  0  0  0  0  0  0  0  0  0  0  0
  1  2  1  0
  2  3  2  0
  3  4  1  0
  4  5  2  0
  5  6  1  0
  6  7  1  0
  7  8  2  0
  8  9  1  0
  9 10  1  0
 10 11  2  0
 11 12  1  0
 12 13  2  0
 13 14  1  0
 14 15  2  0
  9 16  2  0
 16 17  1  0
  5 18  1  0
 18 19  2  0
 19  2  1  0
 17  6  2  0
 15 10  1  0
  1 20  1  0
  1 21  1  0
  1 22  1  0
  3 23  1  0
  4 24  1  0
  7 25  1  0
  8 26  1  0
 11 27  1  0
 12 28  1  0
 13 29  1  0
 14 30  1  0
 15 31  1  0
 16 32  1  0
 17 33  1  0
 19 34  1  0
M  END
$$$$
