
     RDKit          3D

 27 29  0  0  0  0  0  0  0  0999 V2000
   -0.3126   -1.6800    5.0080 C   0  0  0  0  0  0  0  0  0  0  0  0
   -0.2344   -1.1482    3.6134 C   0  0  0  0  0  0  0  0  0  0  0  0
   -0.6110    0.1630    3.3017 C   0  0  0  0  0  0  0  0  0  0  0  0
   -0.5514    0.6429    2.0052 C   0  0  0  0  0  0  0  0  0  0  0  0
   -0.1073   -0.1719    0.9629 C   0  0  0  0  0  0  0  0  0  0  0  0
   -0.0398    0.3312   -0.4187 C   0  0  0  0  0  0  0  0  0  0  0  0
    0.3307   -0.4156   -1.4066 N   0  0  0  0  0  0  0  0  0  0  0  0
    0.3122    0.3010   -2.5906 C   0  0  0  0  0  0  0  0  0  0  0  0
    0.6660   -0.2179   -3.8583 C   0  0  0  0  0  0  0  0  0  0  0  0
    0.6138    0.6199   -4.9548 C   0  0  0  0  0  0  0  0  0  0  0  0
    0.2144    1.9630   -4.8249 C   0  0  0  0  0  0  0  0  0  0  0  0
   -0.1366    2.4773   -3.5838 C   0  0  0  0  0  0  0  0  0  0  0  0
   -0.0822    1.6378   -2.4666 C   0  0  0  0  0  0  0  0  0  0  0  0
   -0.4516    1.9747   -0.8119 S   0  0  0  0  0  0  0  0  0  0  0  0
    0.2758   -1.4894    1.2629 C   0  0  0  0  0  0  0  0  0  0  0  0
    0.2108   -1.9611    2.5561 C   0  0  0  0  0  0  0  0  0  0  0  0
   -1.1422   -2.3832    5.1004 H   0  0  0  0  0  0  0  0  0  0  0  0
   -0.4630   -0.8800    5.7312 H   0  0  0  0  0  0  0  0  0  0  0  0
    0.5959   -2.2192    5.2720 H   0  0  0  0  0  0  0  0  0  0  0  0
   -0.9599    0.8139    4.0922 H   0  0  0  0  0  0  0  0  0  0  0  0
   -0.8474    1.6716    1.8042 H   0  0  0  0  0  0  0  0  0  0  0  0
    0.9675   -1.2528   -3.9459 H   0  0  0  0  0  0  0  0  0  0  0  0
    0.8875    0.2360   -5.9204 H   0  0  0  0  0  0  0  0  0  0  0  0
    0.1853    2.5962   -5.6940 H   0  0  0  0  0  0  0  0  0  0  0  0
   -0.4468    3.5120   -3.4715 H   0  0  0  0  0  0  0  0  0  0  0  0
    0.6190   -2.1374    0.4668 H   0  0  0  0  0  0  0  0  0  0  0  0
    0.5073   -2.9836    2.7708 H   0  0  0  0  0  0  0  0  0  0  0  0
  1  2  1  0
  2  3  1  0
  3  4  2  0
  4  5  1  0
  5  6  1  0
  6  7  2  0
  7  8  1  0
  8  9  2  0
  9 10  1  0
 10 11  2  0
 11 12  1  0
 12 13  2  0
 13 14  1  0
  5 15  2  0
 15 16  1  0
 16  2  2  0
 14  6  1  0
 13  8  1  0
  1 17  1  0
  1 18  1  0
  1 19  1  0
  3 20  1  0
  4 21  1  0
  9 22  1  0
 10 23  1  0
 11 24  1  0
 12 25  1  0
 15 26  1  0
 16 27  1  0
M  END
$$$$

     RDKit          3D

 27 29  0  0  0  0  0  0  0  0999 V2000
    1.3057   -4.7490    1.9364 C   0  0  0  0  0  0  0  0  0  0  0  0
    0.9007   -3.4280    1.3630 C   0  0  0  0  0  0  0  0  0  0  0  0
    1.7887   -2.3424    1.3358 C   0  0  0  0  0  0  0  0  0  0  0  0
    1.4095   -1.1125    0.8240 C   0  0  0  0  0  0  0  0  0  0  0  0
    0.1152   -0.9245    0.3149 C   0  0  0  0  0  0  0  0  0  0  0  0
   -0.2885    0.3800   -0.2311 C   0  0  0  0  0  0  0  0  0  0  0  0
    0.4991    1.4034   -0.2265 N   0  0  0  0  0  0  0  0  0  0  0  0
   -0.1262    2.5004   -0.7965 C   0  0  0  0  0  0  0  0  0  0  0  0
    0.4532    3.7830   -0.9486 C   0  0  0  0  0  0  0  0  0  0  0  0
   -0.2940    4.7844   -1.5369 C   0  0  0  0  0  0  0  0  0  0  0  0
   -1.6058    4.5445   -1.9858 C   0  0  0  0  0  0  0  0  0  0  0  0
   -2.1823    3.2900   -1.8373 C   0  0  0  0  0  0  0  0  0  0  0  0
   -1.4347    2.2701   -1.2361 C   0  0  0  0  0  0  0  0  0  0  0  0
   -1.8682    0.6267   -0.9186 S   0  0  0  0  0  0  0  0  0  0  0  0
   -0.7732   -2.0018    0.3402 C   0  0  0  0  0  0  0  0  0  0  0  0
   -0.3882   -3.2209    0.8521 C   0  0  0  0  0  0  0  0  0  0  0  0
    1.0461   -4.7937    2.9945 H   0  0  0  0  0  0  0  0  0  0  0  0
    2.3790   -4.9097    1.8496 H   0  0  0  0  0  0  0  0  0  0  0  0
    0.7895   -5.5676    1.4353 H   0  0  0  0  0  0  0  0  0  0  0  0
    2.7923   -2.4716    1.7266 H   0  0  0  0  0  0  0  0  0  0  0  0
    2.1148   -0.2951    0.8112 H   0  0  0  0  0  0  0  0  0  0  0  0
    1.4647    3.9569   -0.6017 H   0  0  0  0  0  0  0  0  0  0  0  0
    0.1387    5.7623   -1.6525 H   0  0  0  0  0  0  0  0  0  0  0  0
   -2.1655    5.3412   -2.4447 H   0  0  0  0  0  0  0  0  0  0  0  0
   -3.1936    3.0913   -2.1795 H   0  0  0  0  0  0  0  0  0  0  0  0
   -1.7827   -1.8771   -0.0487 H   0  0  0  0  0  0  0  0  0  0  0  0
   -1.0942   -4.0405    0.8607 H   0  0  0  0  0  0  0  0  0  0  0  0
  1  2  1  0
  2  3  1  0
  3  4  2  0
  4  5  1  0
  5  6  1  0
  6  7  2  0
  7  8  1  0
  8  9  2  0
  9 10  1  0
 10 11  2  0
 11 12  1  0
 12 13  2  0
 13 14  1  0
  5 15  2  0
 15 16  1  0
 16  2  2  0
 14  6  1  0
 13  8  1  0
  1 17  1  0
  1 18  1  0
  1 19  1  0
  3 20  1  0
  4 21  1  0
  9 22  1  0
 10 23  1  0
 11 24  1  0
 12 25  1  0
 15 26  1  0
 16 27  1  0
M  END
$$$$

     RDKit          3D

 27 29  0  0  0  0  0  0  0  0999 V2000
    2.1993   -0.2079   -4.8074 C   0  0  0  0  0  0  0  0  0  0  0  0
    1.6111   -0.1793   -3.4344 C   0  0  0  0  0  0  0  0  0  0  0  0
    2.1473   -0.9594   -2.4023 C   0  0  0  0  0  0  0  0  0  0  0  0
    1.5993   -0.9479   -1.1334 C   0  0  0  0  0  0  0  0  0  0  0  0
    0.4943   -0.1464   -0.8395 C   0  0  0  0  0  0  0  0  0  0  0  0
   -0.0861   -0.1157    0.5139 C   0  0  0  0  0  0  0  0  0  0  0  0
   -1.1028    0.6236    0.8109 N   0  0  0  0  0  0  0  0  0  0  0  0
   -1.4424    0.4717    2.1439 C   0  0  0  0  0  0  0  0  0  0  0  0
   -2.5041    1.1452    2.7925 C   0  0  0  0  0  0  0  0  0  0  0  0
   -2.7279    0.8965    4.1308 C   0  0  0  0  0  0  0  0  0  0  0  0
   -1.9242   -0.0102    4.8474 C   0  0  0  0  0  0  0  0  0  0  0  0
   -0.8763   -0.6696    4.2186 C   0  0  0  0  0  0  0  0  0  0  0  0
   -0.6390   -0.4204    2.8621 C   0  0  0  0  0  0  0  0  0  0  0  0
    0.5685   -1.0756    1.8088 S   0  0  0  0  0  0  0  0  0  0  0  0
   -0.0541    0.6374   -1.8669 C   0  0  0  0  0  0  0  0  0  0  0  0
    0.4937    0.6149   -3.1329 C   0  0  0  0  0  0  0  0  0  0  0  0
    3.2840   -0.0956   -4.7665 H   0  0  0  0  0  0  0  0  0  0  0  0
    1.9894   -1.1664   -5.2849 H   0  0  0  0  0  0  0  0  0  0  0  0
    1.7910    0.5818   -5.4365 H   0  0  0  0  0  0  0  0  0  0  0  0
    3.0108   -1.5817   -2.6062 H   0  0  0  0  0  0  0  0  0  0  0  0
    2.0413   -1.5695   -0.3577 H   0  0  0  0  0  0  0  0  0  0  0  0
   -3.1126    1.8426    2.2298 H   0  0  0  0  0  0  0  0  0  0  0  0
   -3.5295    1.4071    4.6317 H   0  0  0  0  0  0  0  0  0  0  0  0
   -2.1241   -0.1876    5.8896 H   0  0  0  0  0  0  0  0  0  0  0  0
   -0.2492   -1.3718    4.7594 H   0  0  0  0  0  0  0  0  0  0  0  0
   -0.9106    1.2622   -1.6542 H   0  0  0  0  0  0  0  0  0  0  0  0
    0.0530    1.2219   -3.9169 H   0  0  0  0  0  0  0  0  0  0  0  0
  1  2  1  0
  2  3  1  0
  3  4  2  0
  4  5  1  0
  5  6  1  0
  6  7  2  0
  7  8  1  0
  8  9  2  0
  9 10  1  0
 10 11  2  0
 11 12  1  0
 12 13  2  0
 13 14  1  0
  5 15  2  0
 15 16  1  0
 16  2  2  0
 14  6  1  0
 13  8  1  0
  1 17  1  0
  1 18  1  0
  1 19  1  0
  3 20  1  0
  4 21  1  0
  9 22  1  0
 10 23  1  0
 11 24  1  0
 12 25  1  0
 15 26  1  0
 16 27  1  0
M  END
$$$$

     RDKit          3D

 27 29  0  0  0  0  0  0  0  0999 V2000
   -0.7552   -3.8450    3.5597 C   0  0  0  0  0  0  0  0  0  0  0  0
   -0.5194   -2.7382    2.5824 C   0  0  0  0  0  0  0  0  0  0  0  0
    0.1334   -1.5623    2.9699 C   0  0  0  0  0  0  0  0  0  0  0  0
    0.3433   -0.5270    2.0771 C   0  0  0  0  0  0  0  0  0  0  0  0
   -0.0906   -0.6254    0.7524 C   0  0  0  0  0  0  0  0  0  0  0  0
    0.1411    0.4669   -0.2066 C   0  0  0  0  0  0  0  0  0  0  0  0
   -0.2519    0.4053   -1.4377 N   0  0  0  0  0  0  0  0  0  0  0  0
    0.1024    1.5583   -2.1172 C   0  0  0  0  0  0  0  0  0  0  0  0
   -0.1715    1.8166   -3.4820 C   0  0  0  0  0  0  0  0  0  0  0  0
    0.2455    3.0132   -4.0286 C   0  0  0  0  0  0  0  0  0  0  0  0
    0.9318    3.9661   -3.2538 C   0  0  0  0  0  0  0  0  0  0  0  0
    1.2054    3.7188   -1.9151 C   0  0  0  0  0  0  0  0  0  0  0  0
    0.7882    2.5080   -1.3522 C   0  0  0  0  0  0  0  0  0  0  0  0
    0.9695    1.9202    0.2641 S   0  0  0  0  0  0  0  0  0  0  0  0
   -0.7508   -1.7967    0.3535 C   0  0  0  0  0  0  0  0  0  0  0  0
   -0.9600   -2.8240    1.2512 C   0  0  0  0  0  0  0  0  0  0  0  0
    0.1156   -3.9852    4.2044 H   0  0  0  0  0  0  0  0  0  0  0  0
   -0.9699   -4.7841    3.0549 H   0  0  0  0  0  0  0  0  0  0  0  0
   -1.6019   -3.6042    4.2021 H   0  0  0  0  0  0  0  0  0  0  0  0
    0.4823   -1.4682    3.9916 H   0  0  0  0  0  0  0  0  0  0  0  0
    0.8580    0.3694    2.4155 H   0  0  0  0  0  0  0  0  0  0  0  0
   -0.7001    1.0751   -4.0683 H   0  0  0  0  0  0  0  0  0  0  0  0
    0.0416    3.2149   -5.0642 H   0  0  0  0  0  0  0  0  0  0  0  0
    1.2460    4.8918   -3.7023 H   0  0  0  0  0  0  0  0  0  0  0  0
    1.7352    4.4452   -1.3071 H   0  0  0  0  0  0  0  0  0  0  0  0
   -1.0981   -1.8868   -0.6675 H   0  0  0  0  0  0  0  0  0  0  0  0
   -1.4696   -3.7230    0.9238 H   0  0  0  0  0  0  0  0  0  0  0  0
  1  2  1  0
  2  3  1  0
  3  4  2  0
  4  5  1  0
  5  6  1  0
  6  7  2  0
  7  8  1  0
  8  9  2  0
  9 10  1  0
 10 11  2  0
 11 12  1  0
 12 13  2  0
 13 14  1  0
  5 15  2  0
 15 16  1  0
 16  2  2  0
 14  6  1  0
 13  8  1  0
  1 17  1  0
  1 18  1  0
  1 19  1  0
  3 20  1  0
  4 21  1  0
  9 22  1  0
 10 23  1  0
 11 24  1  0
 12 25  1  0
 15 26  1  0
 16 27  1  0
M  END
$$$$

     RDKit          3D

 27 29  0  0  0  0  0  0  0  0999 V2000
   -1.0695    4.6514    2.2859 C   0  0  0  0  0  0  0  0  0  0  0  0
   -0.7799    3.3139    1.6853 C   0  0  0  0  0  0  0  0  0  0  0  0
   -0.6689    2.1664    2.4744 C   0  0  0  0  0  0  0  0  0  0  0  0
   -0.3821    0.9334    1.9159 C   0  0  0  0  0  0  0  0  0  0  0  0
   -0.2037    0.7969    0.5374 C   0  0  0  0  0  0  0  0  0  0  0  0
    0.0916   -0.5157   -0.0606 C   0  0  0  0  0  0  0  0  0  0  0  0
    0.2739   -0.6783   -1.3288 N   0  0  0  0  0  0  0  0  0  0  0  0
    0.5383   -2.0075   -1.6145 C   0  0  0  0  0  0  0  0  0  0  0  0
    0.7879   -2.5315   -2.9053 C   0  0  0  0  0  0  0  0  0  0  0  0
    1.0316   -3.8843   -3.0374 C   0  0  0  0  0  0  0  0  0  0  0  0
    1.0382   -4.7355   -1.9163 C   0  0  0  0  0  0  0  0  0  0  0  0
    0.7946   -4.2285   -0.6479 C   0  0  0  0  0  0  0  0  0  0  0  0
    0.5422   -2.8603   -0.5056 C   0  0  0  0  0  0  0  0  0  0  0  0
    0.2143   -1.9459    0.9227 S   0  0  0  0  0  0  0  0  0  0  0  0
   -0.3105    1.9424   -0.2667 C   0  0  0  0  0  0  0  0  0  0  0  0
   -0.5869    3.1702    0.2992 C   0  0  0  0  0  0  0  0  0  0  0  0
   -1.4127    4.5596    3.3174 H   0  0  0  0  0  0  0  0  0  0  0  0
   -1.8297    5.1793    1.7135 H   0  0  0  0  0  0  0  0  0  0  0  0
   -0.1723    5.2706    2.2786 H   0  0  0  0  0  0  0  0  0  0  0  0
   -0.8064    2.2445    3.5462 H   0  0  0  0  0  0  0  0  0  0  0  0
   -0.2948    0.0681    2.5666 H   0  0  0  0  0  0  0  0  0  0  0  0
    0.7842   -1.8646   -3.7574 H   0  0  0  0  0  0  0  0  0  0  0  0
    1.2188   -4.2921   -4.0138 H   0  0  0  0  0  0  0  0  0  0  0  0
    1.2321   -5.7854   -2.0451 H   0  0  0  0  0  0  0  0  0  0  0  0
    0.7980   -4.8739    0.2251 H   0  0  0  0  0  0  0  0  0  0  0  0
   -0.1663    1.8573   -1.3364 H   0  0  0  0  0  0  0  0  0  0  0  0
   -0.6621    4.0494   -0.3325 H   0  0  0  0  0  0  0  0  0  0  0  0
  1  2  1  0
  2  3  1  0
  3  4  2  0
  4  5  1  0
  5  6  1  0
  6  7  2  0
  7  8  1  0
  8  9  2  0
  9 10  1  0
 10 11  2  0
 11 12  1  0
 12 13  2  0
 13 14  1  0
  5 15  2  0
 15 16  1  0
 16  2  2  0
 14  6  1  0
 13  8  1  0
  1 17  1  0
  1 18  1  0
  1 19  1  0
  3 20  1  0
  4 21  1  0
  9 22  1  0
 10 23  1  0
 11 24  1  0
 12 25  1  0
 15 26  1  0
 16 27  1  0
M  END
$$$$

     RDKit          3D

 27 29  0  0  0  0  0  0  0  0999 V2000
   -4.7357   -2.2204   -0.7988 C   0  0  0  0  0  0  0  0  0  0  0  0
   -3.4010   -1.6118   -0.5119 C   0  0  0  0  0  0  0  0  0  0  0  0
   -2.9686   -1.3730    0.7959 C   0  0  0  0  0  0  0  0  0  0  0  0
   -1.7389   -0.7915    1.0537 C   0  0  0  0  0  0  0  0  0  0  0  0
   -0.8880   -0.4285    0.0099 C   0  0  0  0  0  0  0  0  0  0  0  0
    0.4217    0.1910    0.2731 C   0  0  0  0  0  0  0  0  0  0  0  0
    1.2044    0.5738   -0.6833 N   0  0  0  0  0  0  0  0  0  0  0  0
    2.3654    1.1231   -0.1705 C   0  0  0  0  0  0  0  0  0  0  0  0
    3.4329    1.6395   -0.9431 C   0  0  0  0  0  0  0  0  0  0  0  0
    4.5364    2.1535   -0.2917 C   0  0  0  0  0  0  0  0  0  0  0  0
    4.6091    2.1706    1.1139 C   0  0  0  0  0  0  0  0  0  0  0  0
    3.5653    1.6660    1.8774 C   0  0  0  0  0  0  0  0  0  0  0  0
    2.4447    1.1393    1.2255 C   0  0  0  0  0  0  0  0  0  0  0  0
    1.0054    0.4498    1.8920 S   0  0  0  0  0  0  0  0  0  0  0  0
   -1.3099   -0.6649   -1.3073 C   0  0  0  0  0  0  0  0  0  0  0  0
   -2.5374   -1.2415   -1.5574 C   0  0  0  0  0  0  0  0  0  0  0  0
   -5.1798   -2.6487    0.0994 H   0  0  0  0  0  0  0  0  0  0  0  0
   -5.4202   -1.4680   -1.1912 H   0  0  0  0  0  0  0  0  0  0  0  0
   -4.6529   -3.0044   -1.5512 H   0  0  0  0  0  0  0  0  0  0  0  0
   -3.6081   -1.6452    1.6238 H   0  0  0  0  0  0  0  0  0  0  0  0
   -1.4361   -0.6210    2.0848 H   0  0  0  0  0  0  0  0  0  0  0  0
    3.3652    1.6202   -2.0235 H   0  0  0  0  0  0  0  0  0  0  0  0
    5.3532    2.5453   -0.8706 H   0  0  0  0  0  0  0  0  0  0  0  0
    5.4802    2.5752    1.5976 H   0  0  0  0  0  0  0  0  0  0  0  0
    3.6036    1.6752    2.9625 H   0  0  0  0  0  0  0  0  0  0  0  0
   -0.6631   -0.3864   -2.1275 H   0  0  0  0  0  0  0  0  0  0  0  0
   -2.8480   -1.4173   -2.5815 H   0  0  0  0  0  0  0  0  0  0  0  0
  1  2  1  0
  2  3  1  0
  3  4  2  0
  4  5  1  0
  5  6  1  0
  6  7  2  0
  7  8  1  0
  8  9  2  0
  9 10  1  0
 10 11  2  0
 11 12  1  0
 12 13  2  0
 13 14  1  0
  5 15  2  0
 15 16  1  0
 16  2  2  0
 14  6  1  0
 13  8  1  0
  1 17  1  0
  1 18  1  0
  1 19  1  0
  3 20  1  0
  4 21  1  0
  9 22  1  0
 10 23  1  0
 11 24  1  0
 12 25  1  0
 15 26  1  0
 16 27  1  0
M  END
$$$$

     RDKit          3D

 27 29  0  0  0  0  0  0  0  0999 V2000
    0.6085    3.2254    4.1516 C   0  0  0  0  0  0  0  0  0  0  0  0
    0.4025    2.3515    2.9566 C   0  0  0  0  0  0  0  0  0  0  0  0
   -0.4675    2.7153    1.9236 C   0  0  0  0  0  0  0  0  0  0  0  0
   -0.6610    1.9004    0.8230 C   0  0  0  0  0  0  0  0  0  0  0  0
    0.0162    0.6850    0.7062 C   0  0  0  0  0  0  0  0  0  0  0  0
   -0.1750   -0.1820   -0.4678 C   0  0  0  0  0  0  0  0  0  0  0  0
    0.4265   -1.3190   -0.5937 N   0  0  0  0  0  0  0  0  0  0  0  0
    0.0666   -1.9296   -1.7828 C   0  0  0  0  0  0  0  0  0  0  0  0
    0.5394   -3.1863   -2.2303 C   0  0  0  0  0  0  0  0  0  0  0  0
    0.0914   -3.6718   -3.4428 C   0  0  0  0  0  0  0  0  0  0  0  0
   -0.8172   -2.9395   -4.2287 C   0  0  0  0  0  0  0  0  0  0  0  0
   -1.2835   -1.7058   -3.7977 C   0  0  0  0  0  0  0  0  0  0  0  0
   -0.8338   -1.2043   -2.5708 C   0  0  0  0  0  0  0  0  0  0  0  0
   -1.2296    0.2784   -1.7711 S   0  0  0  0  0  0  0  0  0  0  0  0
    0.8865    0.3046    1.7404 C   0  0  0  0  0  0  0  0  0  0  0  0
    1.0709    1.1201    2.8367 C   0  0  0  0  0  0  0  0  0  0  0  0
    0.2897    4.2487    3.9542 H   0  0  0  0  0  0  0  0  0  0  0  0
    1.6558    3.2392    4.4491 H   0  0  0  0  0  0  0  0  0  0  0  0
    0.0373    2.8489    5.0005 H   0  0  0  0  0  0  0  0  0  0  0  0
   -0.9999    3.6565    1.9857 H   0  0  0  0  0  0  0  0  0  0  0  0
   -1.3439    2.2227    0.0403 H   0  0  0  0  0  0  0  0  0  0  0  0
    1.2416   -3.7395   -1.6198 H   0  0  0  0  0  0  0  0  0  0  0  0
    0.4467   -4.6247   -3.7900 H   0  0  0  0  0  0  0  0  0  0  0  0
   -1.1504   -3.3397   -5.1702 H   0  0  0  0  0  0  0  0  0  0  0  0
   -1.9821   -1.1295   -4.3950 H   0  0  0  0  0  0  0  0  0  0  0  0
    1.4166   -0.6359    1.6665 H   0  0  0  0  0  0  0  0  0  0  0  0
    1.7477    0.8110    3.6264 H   0  0  0  0  0  0  0  0  0  0  0  0
  1  2  1  0
  2  3  1  0
  3  4  2  0
  4  5  1  0
  5  6  1  0
  6  7  2  0
  7  8  1  0
  8  9  2  0
  9 10  1  0
 10 11  2  0
 11 12  1  0
 12 13  2  0
 13 14  1  0
  5 15  2  0
 15 16  1  0
 16  2  2  0
 14  6  1  0
 13  8  1  0
  1 17  1  0
  1 18  1  0
  1 19  1  0
  3 20  1  0
  4 21  1  0
  9 22  1  0
 10 23  1  0
 11 24  1  0
 12 25  1  0
 15 26  1  0
 16 27  1  0
M  END
$$$$

     RDKit          3D

 27 29  0  0  0  0  0  0  0  0999 V2000
    0.7030   -0.6058   -5.2110 C   0  0  0  0  0  0  0  0  0  0  0  0
    0.4947   -0.3897   -3.7461 C   0  0  0  0  0  0  0  0  0  0  0  0
    1.0373   -1.2637   -2.7929 C   0  0  0  0  0  0  0  0  0  0  0  0
    0.8191   -1.0785   -1.4371 C   0  0  0  0  0  0  0  0  0  0  0  0
    0.0453    0.0007   -0.9823 C   0  0  0  0  0  0  0  0  0  0  0  0
   -0.1818    0.2040    0.4578 C   0  0  0  0  0  0  0  0  0  0  0  0
    0.3575   -0.5553    1.3525 N   0  0  0  0  0  0  0  0  0  0  0  0
   -0.0125   -0.1473    2.6234 C   0  0  0  0  0  0  0  0  0  0  0  0
    0.4029   -0.7624    3.8275 C   0  0  0  0  0  0  0  0  0  0  0  0
   -0.0467   -0.2470    5.0258 C   0  0  0  0  0  0  0  0  0  0  0  0
   -0.9007    0.8710    5.0616 C   0  0  0  0  0  0  0  0  0  0  0  0
   -1.3140    1.4780    3.8841 C   0  0  0  0  0  0  0  0  0  0  0  0
   -0.8669    0.9594    2.6630 C   0  0  0  0  0  0  0  0  0  0  0  0
   -1.1971    1.4870    1.0508 S   0  0  0  0  0  0  0  0  0  0  0  0
   -0.4962    0.8743   -1.9286 C   0  0  0  0  0  0  0  0  0  0  0  0
   -0.2772    0.6811   -3.2739 C   0  0  0  0  0  0  0  0  0  0  0  0
    1.6127   -1.1711   -5.4083 H   0  0  0  0  0  0  0  0  0  0  0  0
    0.7577    0.3439   -5.7423 H   0  0  0  0  0  0  0  0  0  0  0  0
   -0.1352   -1.1658   -5.6272 H   0  0  0  0  0  0  0  0  0  0  0  0
    1.6410   -2.1007   -3.1253 H   0  0  0  0  0  0  0  0  0  0  0  0
    1.2544   -1.7644   -0.7245 H   0  0  0  0  0  0  0  0  0  0  0  0
    1.0587   -1.6230    3.7862 H   0  0  0  0  0  0  0  0  0  0  0  0
    0.2613   -0.7094    5.9458 H   0  0  0  0  0  0  0  0  0  0  0  0
   -1.2365    1.2532    6.0100 H   0  0  0  0  0  0  0  0  0  0  0  0
   -1.9713    2.3420    3.8972 H   0  0  0  0  0  0  0  0  0  0  0  0
   -1.1008    1.7185   -1.5986 H   0  0  0  0  0  0  0  0  0  0  0  0
   -0.7088    1.3710   -3.9881 H   0  0  0  0  0  0  0  0  0  0  0  0
  1  2  1  0
  2  3  1  0
  3  4  2  0
  4  5  1  0
  5  6  1  0
  6  7  2  0
  7  8  1  0
  8  9  2  0
  9 10  1  0
 10 11  2  0
 11 12  1  0
 12 13  2  0
 13 14  1  0
  5 15  2  0
 15 16  1  0
 16  2  2  0
 14  6  1  0
 13  8  1  0
  1 17  1  0
  1 18  1  0
  1 19  1  0
  3 20  1  0
  4 21  1  0
  9 22  1  0
 10 23  1  0
 11 24  1  0
 12 25  1  0
 15 26  1  0
 16 27  1  0
M  END
$$$$

     RDKit          3D

 27 29  0  0  0  0  0  0  0  0999 V2000
   -3.9049    3.3275   -1.2948 C   0  0  0  0  0  0  0  0  0  0  0  0
   -2.7989    2.4124   -0.8769 C   0  0  0  0  0  0  0  0  0  0  0  0
   -1.9880    2.7016    0.2263 C   0  0  0  0  0  0  0  0  0  0  0  0
   -0.9488    1.8668    0.5942 C   0  0  0  0  0  0  0  0  0  0  0  0
   -0.6778    0.7030   -0.1287 C   0  0  0  0  0  0  0  0  0  0  0  0
    0.4214   -0.1962    0.2573 C   0  0  0  0  0  0  0  0  0  0  0  0
    0.6644   -1.3025   -0.3663 N   0  0  0  0  0  0  0  0  0  0  0  0
    1.7447   -1.9546    0.2028 C   0  0  0  0  0  0  0  0  0  0  0  0
    2.2711   -3.1941   -0.2334 C   0  0  0  0  0  0  0  0  0  0  0  0
    3.3522   -3.7300    0.4374 C   0  0  0  0  0  0  0  0  0  0  0  0
    3.9323   -3.0619    1.5315 C   0  0  0  0  0  0  0  0  0  0  0  0
    3.4218   -1.8452    1.9644 C   0  0  0  0  0  0  0  0  0  0  0  0
    2.3214   -1.2985    1.2953 C   0  0  0  0  0  0  0  0  0  0  0  0
    1.4704    0.1789    1.5912 S   0  0  0  0  0  0  0  0  0  0  0  0
   -1.4811    0.4043   -1.2397 C   0  0  0  0  0  0  0  0  0  0  0  0
   -2.5162    1.2409   -1.6004 C   0  0  0  0  0  0  0  0  0  0  0  0
   -3.5478    4.0183   -2.0601 H   0  0  0  0  0  0  0  0  0  0  0  0
   -4.7405    2.7722   -1.7190 H   0  0  0  0  0  0  0  0  0  0  0  0
   -4.2671    3.9183   -0.4529 H   0  0  0  0  0  0  0  0  0  0  0  0
   -2.1852    3.5956    0.8063 H   0  0  0  0  0  0  0  0  0  0  0  0
   -0.3421    2.1228    1.4605 H   0  0  0  0  0  0  0  0  0  0  0  0
    1.8160   -3.6942   -1.0784 H   0  0  0  0  0  0  0  0  0  0  0  0
    3.7552   -4.6715    0.1135 H   0  0  0  0  0  0  0  0  0  0  0  0
    4.7763   -3.4987    2.0360 H   0  0  0  0  0  0  0  0  0  0  0  0
    3.8608   -1.3199    2.8069 H   0  0  0  0  0  0  0  0  0  0  0  0
   -1.2774   -0.4893   -1.8139 H   0  0  0  0  0  0  0  0  0  0  0  0
   -3.1320    0.9939   -2.4591 H   0  0  0  0  0  0  0  0  0  0  0  0
  1  2  1  0
  2  3  1  0
  3  4  2  0
  4  5  1  0
  5  6  1  0
  6  7  2  0
  7  8  1  0
  8  9  2  0
  9 10  1  0
 10 11  2  0
 11 12  1  0
 12 13  2  0
 13 14  1  0
  5 15  2  0
 15 16  1  0
 16  2  2  0
 14  6  1  0
 13  8  1  0
  1 17  1  0
  1 18  1  0
  1 19  1  0
  3 20  1  0
  4 21  1  0
  9 22  1  0
 10 23  1  0
 11 24  1  0
 12 25  1  0
 15 26  1  0
 16 27  1  0
M  END
$$$$

     RDKit          3D

 27 29  0  0  0  0  0  0  0  0999 V2000
    4.1938    0.0937    3.2267 C   0  0  0  0  0  0  0  0  0  0  0  0
    3.0185    0.0215    2.3066 C   0  0  0  0  0  0  0  0  0  0  0  0
    2.8057   -1.0938    1.4871 C   0  0  0  0  0  0  0  0  0  0  0  0
    1.7240   -1.1585    0.6278 C   0  0  0  0  0  0  0  0  0  0  0  0
    0.8108   -0.1052    0.5465 C   0  0  0  0  0  0  0  0  0  0  0  0
   -0.3435   -0.1721   -0.3655 C   0  0  0  0  0  0  0  0  0  0  0  0
   -1.1503    0.8227   -0.5338 N   0  0  0  0  0  0  0  0  0  0  0  0
   -2.1516    0.4909   -1.4302 C   0  0  0  0  0  0  0  0  0  0  0  0
   -3.1997    1.3494   -1.8415 C   0  0  0  0  0  0  0  0  0  0  0  0
   -4.1400    0.8697   -2.7309 C   0  0  0  0  0  0  0  0  0  0  0  0
   -4.0650   -0.4424   -3.2340 C   0  0  0  0  0  0  0  0  0  0  0  0
   -3.0342   -1.2860   -2.8443 C   0  0  0  0  0  0  0  0  0  0  0  0
   -2.0807   -0.8111   -1.9378 C   0  0  0  0  0  0  0  0  0  0  0  0
   -0.6994   -1.6109   -1.2752 S   0  0  0  0  0  0  0  0  0  0  0  0
    1.0164    1.0196    1.3590 C   0  0  0  0  0  0  0  0  0  0  0  0
    2.0962    1.0764    2.2172 C   0  0  0  0  0  0  0  0  0  0  0  0
    5.1022    0.2986    2.6614 H   0  0  0  0  0  0  0  0  0  0  0  0
    4.0739    0.8813    3.9684 H   0  0  0  0  0  0  0  0  0  0  0  0
    4.3362   -0.8559    3.7482 H   0  0  0  0  0  0  0  0  0  0  0  0
    3.5033   -1.9210    1.5307 H   0  0  0  0  0  0  0  0  0  0  0  0
    1.5861   -2.0435    0.0114 H   0  0  0  0  0  0  0  0  0  0  0  0
   -3.2441    2.3598   -1.4554 H   0  0  0  0  0  0  0  0  0  0  0  0
   -4.9412    1.5139   -3.0427 H   0  0  0  0  0  0  0  0  0  0  0  0
   -4.8130   -0.7932   -3.9222 H   0  0  0  0  0  0  0  0  0  0  0  0
   -2.9613   -2.2998   -3.2254 H   0  0  0  0  0  0  0  0  0  0  0  0
    0.3187    1.8461    1.3049 H   0  0  0  0  0  0  0  0  0  0  0  0
    2.2385    1.9497    2.8429 H   0  0  0  0  0  0  0  0  0  0  0  0
  1  2  1  0
  2  3  1  0
  3  4  2  0
  4  5  1  0
  5  6  1  0
  6  7  2  0
  7  8  1  0
  8  9  2  0
  9 10  1  0
 10 11  2  0
 11 12  1  0
 12 13  2  0
 13 14  1  0
  5 15  2  0
 15 16  1  0
 16  2  2  0
 14  6  1  0
 13  8  1  0
  1 17  1  0
  1 18  1  0
  1 19  1  0
  3 20  1  0
  4 21  1  0
  9 22  1  0
 10 23  1  0
 11 24  1  0
 12 25  1  0
 15 26  1  0
 16 27  1  0
M  END
$$$$

     RDKit          3D

 27 29  0  0  0  0  0  0  0  0999 V2000
    1.1409   -3.8059   -3.4942 C   0  0  0  0  0  0  0  0  0  0  0  0
    0.7677   -2.7633   -2.4909 C   0  0  0  0  0  0  0  0  0  0  0  0
    1.3780   -1.4990   -2.5117 C   0  0  0  0  0  0  0  0  0  0  0  0
    1.0581   -0.5288   -1.5788 C   0  0  0  0  0  0  0  0  0  0  0  0
    0.1035   -0.7877   -0.5824 C   0  0  0  0  0  0  0  0  0  0  0  0
   -0.2296    0.2419    0.4143 C   0  0  0  0  0  0  0  0  0  0  0  0
    0.3163    1.4130    0.4080 N   0  0  0  0  0  0  0  0  0  0  0  0
   -0.1784    2.1874    1.4442 C   0  0  0  0  0  0  0  0  0  0  0  0
    0.2051    3.5212    1.7249 C   0  0  0  0  0  0  0  0  0  0  0  0
   -0.3783    4.1695    2.7948 C   0  0  0  0  0  0  0  0  0  0  0  0
   -1.3360    3.5258    3.6013 C   0  0  0  0  0  0  0  0  0  0  0  0
   -1.7134    2.2174    3.3349 C   0  0  0  0  0  0  0  0  0  0  0  0
   -1.1279    1.5524    2.2522 C   0  0  0  0  0  0  0  0  0  0  0  0
   -1.3931   -0.0558    1.6709 S   0  0  0  0  0  0  0  0  0  0  0  0
   -0.5129   -2.0417   -0.5636 C   0  0  0  0  0  0  0  0  0  0  0  0
   -0.1862   -3.0037   -1.4936 C   0  0  0  0  0  0  0  0  0  0  0  0
    0.5522   -4.7136   -3.3644 H   0  0  0  0  0  0  0  0  0  0  0  0
    2.1963   -4.0634   -3.4008 H   0  0  0  0  0  0  0  0  0  0  0  0
    0.9929   -3.4386   -4.5098 H   0  0  0  0  0  0  0  0  0  0  0  0
    2.1188   -1.2844   -3.2742 H   0  0  0  0  0  0  0  0  0  0  0  0
    1.5437    0.4353   -1.6167 H   0  0  0  0  0  0  0  0  0  0  0  0
    0.9442    4.0054    1.0985 H   0  0  0  0  0  0  0  0  0  0  0  0
   -0.0949    5.1823    3.0147 H   0  0  0  0  0  0  0  0  0  0  0  0
   -1.7760    4.0532    4.4283 H   0  0  0  0  0  0  0  0  0  0  0  0
   -2.4513    1.7094    3.9490 H   0  0  0  0  0  0  0  0  0  0  0  0
   -1.2627   -2.2607    0.1986 H   0  0  0  0  0  0  0  0  0  0  0  0
   -0.6769   -3.9678   -1.4537 H   0  0  0  0  0  0  0  0  0  0  0  0
  1  2  1  0
  2  3  1  0
  3  4  2  0
  4  5  1  0
  5  6  1  0
  6  7  2  0
  7  8  1  0
  8  9  2  0
  9 10  1  0
 10 11  2  0
 11 12  1  0
 12 13  2  0
 13 14  1  0
  5 15  2  0
 15 16  1  0
 16  2  2  0
 14  6  1  0
 13  8  1  0
  1 17  1  0
  1 18  1  0
  1 19  1  0
  3 20  1  0
  4 21  1  0
  9 22  1  0
 10 23  1  0
 11 24  1  0
 12 25  1  0
 15 26  1  0
 16 27  1  0
M  END
$$$$

     RDKit          3D

 27 29  0  0  0  0  0  0  0  0999 V2000
    1.3349   -4.9070   -1.4612 C   0  0  0  0  0  0  0  0  0  0  0  0
    0.9295   -3.5383   -1.0195 C   0  0  0  0  0  0  0  0  0  0  0  0
   -0.1304   -3.3538   -0.1226 C   0  0  0  0  0  0  0  0  0  0  0  0
   -0.5218   -2.0904    0.2780 C   0  0  0  0  0  0  0  0  0  0  0  0
    0.1350   -0.9549   -0.2006 C   0  0  0  0  0  0  0  0  0  0  0  0
   -0.2680    0.3941    0.2308 C   0  0  0  0  0  0  0  0  0  0  0  0
    0.3421    1.4606   -0.1687 N   0  0  0  0  0  0  0  0  0  0  0  0
   -0.2310    2.5895    0.3928 C   0  0  0  0  0  0  0  0  0  0  0  0
    0.2015    3.9192    0.1728 C   0  0  0  0  0  0  0  0  0  0  0  0
   -0.4710    4.9475    0.8010 C   0  0  0  0  0  0  0  0  0  0  0  0
   -1.5673    4.6924    1.6461 C   0  0  0  0  0  0  0  0  0  0  0  0
   -1.9925    3.3901    1.8725 C   0  0  0  0  0  0  0  0  0  0  0  0
   -1.3139    2.3403    1.2434 C   0  0  0  0  0  0  0  0  0  0  0  0
   -1.5997    0.6368    1.3226 S   0  0  0  0  0  0  0  0  0  0  0  0
    1.1945   -1.1261   -1.1045 C   0  0  0  0  0  0  0  0  0  0  0  0
    1.5784   -2.3907   -1.5011 C   0  0  0  0  0  0  0  0  0  0  0  0
    1.3481   -5.5988   -0.6188 H   0  0  0  0  0  0  0  0  0  0  0  0
    2.3194   -4.9057   -1.9272 H   0  0  0  0  0  0  0  0  0  0  0  0
    0.6175   -5.2908   -2.1877 H   0  0  0  0  0  0  0  0  0  0  0  0
   -0.6491   -4.2227    0.2639 H   0  0  0  0  0  0  0  0  0  0  0  0
   -1.3484   -1.9871    0.9770 H   0  0  0  0  0  0  0  0  0  0  0  0
    1.0457    4.1032   -0.4799 H   0  0  0  0  0  0  0  0  0  0  0  0
   -0.1490    5.9608    0.6382 H   0  0  0  0  0  0  0  0  0  0  0  0
   -2.0772    5.5145    2.1178 H   0  0  0  0  0  0  0  0  0  0  0  0
   -2.8355    3.1772    2.5227 H   0  0  0  0  0  0  0  0  0  0  0  0
    1.7081   -0.2548   -1.4886 H   0  0  0  0  0  0  0  0  0  0  0  0
    2.4002   -2.5048   -2.1991 H   0  0  0  0  0  0  0  0  0  0  0  0
  1  2  1  0
  2  3  1  0
  3  4  2  0
  4  5  1  0
  5  6  1  0
  6  7  2  0
  7  8  1  0
  8  9  2  0
  9 10  1  0
 10 11  2  0
 11 12  1  0
 12 13  2  0
 13 14  1  0
  5 15  2  0
 15 16  1  0
 16  2  2  0
 14  6  1  0
 13  8  1  0
  1 17  1  0
  1 18  1  0
  1 19  1  0
  3 20  1  0
  4 21  1  0
  9 22  1  0
 10 23  1  0
 11 24  1  0
 12 25  1  0
 15 26  1  0
 16 27  1  0
M  END
$$$$
