
     RDKit          3D

 24 26  0  0  0  0  0  0  0  0999 V2000
    3.0269   -2.6560   -2.0305 C   0  0  0  0  0  0  0  0  0  0  0  0
    2.8708   -1.3001   -2.3412 C   0  0  0  0  0  0  0  0  0  0  0  0
    1.9266   -0.5300   -1.6790 C   0  0  0  0  0  0  0  0  0  0  0  0
    1.1070   -1.1077   -0.6907 C   0  0  0  0  0  0  0  0  0  0  0  0
    0.0993   -0.2865    0.0037 C   0  0  0  0  0  0  0  0  0  0  0  0
   -0.0546    0.9813   -0.2476 N   0  0  0  0  0  0  0  0  0  0  0  0
   -1.0605    1.5126    0.5325 C   0  0  0  0  0  0  0  0  0  0  0  0
   -1.4804    2.8646    0.5139 C   0  0  0  0  0  0  0  0  0  0  0  0
   -2.5074    3.2526    1.3524 C   0  0  0  0  0  0  0  0  0  0  0  0
   -3.1352    2.3273    2.2135 C   0  0  0  0  0  0  0  0  0  0  0  0
   -2.7234    0.9989    2.2423 C   0  0  0  0  0  0  0  0  0  0  0  0
   -1.6821    0.5926    1.4014 C   0  0  0  0  0  0  0  0  0  0  0  0
   -0.9652   -0.9571    1.2076 S   0  0  0  0  0  0  0  0  0  0  0  0
    1.2696   -2.4615   -0.3857 C   0  0  0  0  0  0  0  0  0  0  0  0
    2.2225   -3.2296   -1.0506 C   0  0  0  0  0  0  0  0  0  0  0  0
    3.7632   -3.2529   -2.5513 H   0  0  0  0  0  0  0  0  0  0  0  0
    3.4921   -0.8433   -3.1046 H   0  0  0  0  0  0  0  0  0  0  0  0
    1.8083    0.5198   -1.9284 H   0  0  0  0  0  0  0  0  0  0  0  0
   -0.9911    3.5685   -0.1492 H   0  0  0  0  0  0  0  0  0  0  0  0
   -2.8365    4.2807    1.3469 H   0  0  0  0  0  0  0  0  0  0  0  0
   -3.9354    2.6589    2.8588 H   0  0  0  0  0  0  0  0  0  0  0  0
   -3.1997    0.2800    2.9031 H   0  0  0  0  0  0  0  0  0  0  0  0
    0.6535   -2.9358    0.3814 H   0  0  0  0  0  0  0  0  0  0  0  0
    2.3318   -4.2772   -0.7987 H   0  0  0  0  0  0  0  0  0  0  0  0
  1  2  2  0
  2  3  1  0
  3  4  2  0
  4  5  1  0
  5  6  2  0
  6  7  1  0
  7  8  2  0
  8  9  1  0
  9 10  2  0
 10 11  1  0
 11 12  2  0
 12 13  1  0
  4 14  1  0
 14 15  2  0
 15  1  1  0
 13  5  1  0
 12  7  1  0
  1 16  1  0
  2 17  1  0
  3 18  1  0
  8 19  1  0
  9 20  1  0
 10 21  1  0
 11 22  1  0
 14 23  1  0
 15 24  1  0
M  END
$$$$

     RDKit          3D

 24 26  0  0  0  0  0  0  0  0999 V2000
   -3.7730   -2.4407   -0.3844 C   0  0  0  0  0  0  0  0  0  0  0  0
   -3.2103   -1.7434   -1.4595 C   0  0  0  0  0  0  0  0  0  0  0  0
   -2.0464   -1.0077   -1.2877 C   0  0  0  0  0  0  0  0  0  0  0  0
   -1.4239   -0.9492   -0.0264 C   0  0  0  0  0  0  0  0  0  0  0  0
   -0.1911   -0.1645    0.1572 C   0  0  0  0  0  0  0  0  0  0  0  0
    0.3517    0.5188   -0.8092 N   0  0  0  0  0  0  0  0  0  0  0  0
    1.5004    1.1471   -0.3712 C   0  0  0  0  0  0  0  0  0  0  0  0
    2.3384    1.9667   -1.1669 C   0  0  0  0  0  0  0  0  0  0  0  0
    3.4607    2.5302   -0.5908 C   0  0  0  0  0  0  0  0  0  0  0  0
    3.7754    2.3048    0.7664 C   0  0  0  0  0  0  0  0  0  0  0  0
    2.9589    1.4984    1.5534 C   0  0  0  0  0  0  0  0  0  0  0  0
    1.8217    0.9166    0.9815 C   0  0  0  0  0  0  0  0  0  0  0  0
    0.6371   -0.1093    1.6864 S   0  0  0  0  0  0  0  0  0  0  0  0
   -1.9924   -1.6470    1.0421 C   0  0  0  0  0  0  0  0  0  0  0  0
   -3.1582   -2.3879    0.8632 C   0  0  0  0  0  0  0  0  0  0  0  0
   -4.6816   -3.0138   -0.5231 H   0  0  0  0  0  0  0  0  0  0  0  0
   -3.6820   -1.7808   -2.4372 H   0  0  0  0  0  0  0  0  0  0  0  0
   -1.6172   -0.4704   -2.1263 H   0  0  0  0  0  0  0  0  0  0  0  0
    2.0881    2.1373   -2.2072 H   0  0  0  0  0  0  0  0  0  0  0  0
    4.1061    3.1569   -1.1878 H   0  0  0  0  0  0  0  0  0  0  0  0
    4.6571    2.7616    1.1907 H   0  0  0  0  0  0  0  0  0  0  0  0
    3.1885    1.3197    2.6006 H   0  0  0  0  0  0  0  0  0  0  0  0
   -1.5255   -1.6245    2.0306 H   0  0  0  0  0  0  0  0  0  0  0  0
   -3.5826   -2.9191    1.7056 H   0  0  0  0  0  0  0  0  0  0  0  0
  1  2  2  0
  2  3  1  0
  3  4  2  0
  4  5  1  0
  5  6  2  0
  6  7  1  0
  7  8  2  0
  8  9  1  0
  9 10  2  0
 10 11  1  0
 11 12  2  0
 12 13  1  0
  4 14  1  0
 14 15  2  0
 15  1  1  0
 13  5  1  0
 12  7  1  0
  1 16  1  0
  2 17  1  0
  3 18  1  0
  8 19  1  0
  9 20  1  0
 10 21  1  0
 11 22  1  0
 14 23  1  0
 15 24  1  0
M  END
$$$$

     RDKit          3D

 24 26  0  0  0  0  0  0  0  0999 V2000
    1.9669   -3.4532   -2.1328 C   0  0  0  0  0  0  0  0  0  0  0  0
    2.5198   -2.8512   -0.9961 C   0  0  0  0  0  0  0  0  0  0  0  0
    1.8760   -1.7869   -0.3803 C   0  0  0  0  0  0  0  0  0  0  0  0
    0.6623   -1.2977   -0.8983 C   0  0  0  0  0  0  0  0  0  0  0  0
   -0.0207   -0.1662   -0.2471 C   0  0  0  0  0  0  0  0  0  0  0  0
    0.4529    0.4134    0.8179 N   0  0  0  0  0  0  0  0  0  0  0  0
   -0.3882    1.4263    1.2320 C   0  0  0  0  0  0  0  0  0  0  0  0
   -0.1760    2.2532    2.3616 C   0  0  0  0  0  0  0  0  0  0  0  0
   -1.1149    3.2216    2.6636 C   0  0  0  0  0  0  0  0  0  0  0  0
   -2.2646    3.3972    1.8640 C   0  0  0  0  0  0  0  0  0  0  0  0
   -2.4786    2.5894    0.7512 C   0  0  0  0  0  0  0  0  0  0  0  0
   -1.5389    1.6022    0.4379 C   0  0  0  0  0  0  0  0  0  0  0  0
   -1.5224    0.4746   -0.8562 S   0  0  0  0  0  0  0  0  0  0  0  0
    0.1189   -1.9032   -2.0341 C   0  0  0  0  0  0  0  0  0  0  0  0
    0.7669   -2.9720   -2.6476 C   0  0  0  0  0  0  0  0  0  0  0  0
    2.4701   -4.2865   -2.6086 H   0  0  0  0  0  0  0  0  0  0  0  0
    3.4555   -3.2185   -0.5885 H   0  0  0  0  0  0  0  0  0  0  0  0
    2.3078   -1.3202    0.5007 H   0  0  0  0  0  0  0  0  0  0  0  0
    0.7122    2.1108    2.9668 H   0  0  0  0  0  0  0  0  0  0  0  0
   -0.9641    3.8568    3.5228 H   0  0  0  0  0  0  0  0  0  0  0  0
   -2.9816    4.1640    2.1201 H   0  0  0  0  0  0  0  0  0  0  0  0
   -3.3609    2.7166    0.1306 H   0  0  0  0  0  0  0  0  0  0  0  0
   -0.8252   -1.5454   -2.4519 H   0  0  0  0  0  0  0  0  0  0  0  0
    0.3268   -3.4250   -3.5278 H   0  0  0  0  0  0  0  0  0  0  0  0
  1  2  2  0
  2  3  1  0
  3  4  2  0
  4  5  1  0
  5  6  2  0
  6  7  1  0
  7  8  2  0
  8  9  1  0
  9 10  2  0
 10 11  1  0
 11 12  2  0
 12 13  1  0
  4 14  1  0
 14 15  2  0
 15  1  1  0
 13  5  1  0
 12  7  1  0
  1 16  1  0
  2 17  1  0
  3 18  1  0
  8 19  1  0
  9 20  1  0
 10 21  1  0
 11 22  1  0
 14 23  1  0
 15 24  1  0
M  END
$$$$

     RDKit          3D

 24 26  0  0  0  0  0  0  0  0999 V2000
    0.3783   -3.6077   -2.6833 C   0  0  0  0  0  0  0  0  0  0  0  0
    1.1110   -2.4332   -2.8939 C   0  0  0  0  0  0  0  0  0  0  0  0
    0.9632   -1.3493   -2.0403 C   0  0  0  0  0  0  0  0  0  0  0  0
    0.0651   -1.4168   -0.9592 C   0  0  0  0  0  0  0  0  0  0  0  0
   -0.1011   -0.2657   -0.0524 C   0  0  0  0  0  0  0  0  0  0  0  0
    0.5378    0.8565   -0.2160 N   0  0  0  0  0  0  0  0  0  0  0  0
    0.2008    1.7550    0.7783 C   0  0  0  0  0  0  0  0  0  0  0  0
    0.7107    3.0714    0.9013 C   0  0  0  0  0  0  0  0  0  0  0  0
    0.2868    3.8532    1.9592 C   0  0  0  0  0  0  0  0  0  0  0  0
   -0.6365    3.3599    2.9060 C   0  0  0  0  0  0  0  0  0  0  0  0
   -1.1441    2.0697    2.7899 C   0  0  0  0  0  0  0  0  0  0  0  0
   -0.7229    1.2666    1.7255 C   0  0  0  0  0  0  0  0  0  0  0  0
   -1.1708   -0.3401    1.3200 S   0  0  0  0  0  0  0  0  0  0  0  0
   -0.6641   -2.5913   -0.7582 C   0  0  0  0  0  0  0  0  0  0  0  0
   -0.5049   -3.6808   -1.6110 C   0  0  0  0  0  0  0  0  0  0  0  0
    0.5008   -4.4520   -3.3489 H   0  0  0  0  0  0  0  0  0  0  0  0
    1.8024   -2.3667   -3.7265 H   0  0  0  0  0  0  0  0  0  0  0  0
    1.5401   -0.4444   -2.2064 H   0  0  0  0  0  0  0  0  0  0  0  0
    1.4199    3.4407    0.1697 H   0  0  0  0  0  0  0  0  0  0  0  0
    0.6695    4.8567    2.0636 H   0  0  0  0  0  0  0  0  0  0  0  0
   -0.9453    3.9910    3.7261 H   0  0  0  0  0  0  0  0  0  0  0  0
   -1.8551    1.6780    3.5120 H   0  0  0  0  0  0  0  0  0  0  0  0
   -1.3641   -2.6696    0.0767 H   0  0  0  0  0  0  0  0  0  0  0  0
   -1.0775   -4.5813   -1.4321 H   0  0  0  0  0  0  0  0  0  0  0  0
  1  2  2  0
  2  3  1  0
  3  4  2  0
  4  5  1  0
  5  6  2  0
  6  7  1  0
  7  8  2  0
  8  9  1  0
  9 10  2  0
 10 11  1  0
 11 12  2  0
 12 13  1  0
  4 14  1  0
 14 15  2  0
 15  1  1  0
 13  5  1  0
 12  7  1  0
  1 16  1  0
  2 17  1  0
  3 18  1  0
  8 19  1  0
  9 20  1  0
 10 21  1  0
 11 22  1  0
 14 23  1  0
 15 24  1  0
M  END
$$$$

     RDKit          3D

 24 26  0  0  0  0  0  0  0  0999 V2000
    1.2235   -0.2726    4.3330 C   0  0  0  0  0  0  0  0  0  0  0  0
    0.1474    0.5110    3.8969 C   0  0  0  0  0  0  0  0  0  0  0  0
   -0.1893    0.5590    2.5521 C   0  0  0  0  0  0  0  0  0  0  0  0
    0.5541   -0.1748    1.6100 C   0  0  0  0  0  0  0  0  0  0  0  0
    0.1970   -0.1190    0.1827 C   0  0  0  0  0  0  0  0  0  0  0  0
   -0.8140    0.5676   -0.2635 N   0  0  0  0  0  0  0  0  0  0  0  0
   -0.9190    0.4436   -1.6344 C   0  0  0  0  0  0  0  0  0  0  0  0
   -1.9087    1.0616   -2.4366 C   0  0  0  0  0  0  0  0  0  0  0  0
   -1.8903    0.8428   -3.8011 C   0  0  0  0  0  0  0  0  0  0  0  0
   -0.9057    0.0230   -4.3947 C   0  0  0  0  0  0  0  0  0  0  0  0
    0.0684   -0.5897   -3.6124 C   0  0  0  0  0  0  0  0  0  0  0  0
    0.0587   -0.3807   -2.2291 C   0  0  0  0  0  0  0  0  0  0  0  0
    1.1171   -0.9820   -1.0165 S   0  0  0  0  0  0  0  0  0  0  0  0
    1.6303   -0.9506    2.0511 C   0  0  0  0  0  0  0  0  0  0  0  0
    1.9613   -1.0002    3.4026 C   0  0  0  0  0  0  0  0  0  0  0  0
    1.4827   -0.3069    5.3838 H   0  0  0  0  0  0  0  0  0  0  0  0
   -0.4347    1.0837    4.6124 H   0  0  0  0  0  0  0  0  0  0  0  0
   -1.0236    1.1723    2.2219 H   0  0  0  0  0  0  0  0  0  0  0  0
   -2.6599    1.6893   -1.9725 H   0  0  0  0  0  0  0  0  0  0  0  0
   -2.6371    1.3114   -4.4237 H   0  0  0  0  0  0  0  0  0  0  0  0
   -0.9127   -0.1266   -5.4649 H   0  0  0  0  0  0  0  0  0  0  0  0
    0.8283   -1.2263   -4.0585 H   0  0  0  0  0  0  0  0  0  0  0  0
    2.2251   -1.5291    1.3391 H   0  0  0  0  0  0  0  0  0  0  0  0
    2.8012   -1.6067    3.7223 H   0  0  0  0  0  0  0  0  0  0  0  0
  1  2  2  0
  2  3  1  0
  3  4  2  0
  4  5  1  0
  5  6  2  0
  6  7  1  0
  7  8  2  0
  8  9  1  0
  9 10  2  0
 10 11  1  0
 11 12  2  0
 12 13  1  0
  4 14  1  0
 14 15  2  0
 15  1  1  0
 13  5  1  0
 12  7  1  0
  1 16  1  0
  2 17  1  0
  3 18  1  0
  8 19  1  0
  9 20  1  0
 10 21  1  0
 11 22  1  0
 14 23  1  0
 15 24  1  0
M  END
$$$$

     RDKit          3D

 24 26  0  0  0  0  0  0  0  0999 V2000
    0.1464    2.0541    4.0118 C   0  0  0  0  0  0  0  0  0  0  0  0
   -0.9434    2.1612    3.1395 C   0  0  0  0  0  0  0  0  0  0  0  0
   -0.9412    1.4937    1.9233 C   0  0  0  0  0  0  0  0  0  0  0  0
    0.1652    0.7086    1.5481 C   0  0  0  0  0  0  0  0  0  0  0  0
    0.1707    0.0094    0.2515 C   0  0  0  0  0  0  0  0  0  0  0  0
   -0.8273    0.0871   -0.5803 N   0  0  0  0  0  0  0  0  0  0  0  0
   -0.5606   -0.6378   -1.7239 C   0  0  0  0  0  0  0  0  0  0  0  0
   -1.4348   -0.7596   -2.8304 C   0  0  0  0  0  0  0  0  0  0  0  0
   -1.0304   -1.5107   -3.9185 C   0  0  0  0  0  0  0  0  0  0  0  0
    0.2260   -2.1540   -3.9321 C   0  0  0  0  0  0  0  0  0  0  0  0
    1.0854   -2.0465   -2.8433 C   0  0  0  0  0  0  0  0  0  0  0  0
    0.6888   -1.2886   -1.7356 C   0  0  0  0  0  0  0  0  0  0  0  0
    1.5206   -0.9626   -0.2675 S   0  0  0  0  0  0  0  0  0  0  0  0
    1.2492    0.6079    2.4234 C   0  0  0  0  0  0  0  0  0  0  0  0
    1.2394    1.2749    3.6472 C   0  0  0  0  0  0  0  0  0  0  0  0
    0.1375    2.5755    4.9610 H   0  0  0  0  0  0  0  0  0  0  0  0
   -1.7985    2.7704    3.4125 H   0  0  0  0  0  0  0  0  0  0  0  0
   -1.7926    1.5769    1.2565 H   0  0  0  0  0  0  0  0  0  0  0  0
   -2.3965   -0.2628   -2.8050 H   0  0  0  0  0  0  0  0  0  0  0  0
   -1.6839   -1.6045   -4.7707 H   0  0  0  0  0  0  0  0  0  0  0  0
    0.5184   -2.7328   -4.7962 H   0  0  0  0  0  0  0  0  0  0  0  0
    2.0531   -2.5401   -2.8419 H   0  0  0  0  0  0  0  0  0  0  0  0
    2.1169   -0.0006    2.1605 H   0  0  0  0  0  0  0  0  0  0  0  0
    2.0917    1.1811    4.3101 H   0  0  0  0  0  0  0  0  0  0  0  0
  1  2  2  0
  2  3  1  0
  3  4  2  0
  4  5  1  0
  5  6  2  0
  6  7  1  0
  7  8  2  0
  8  9  1  0
  9 10  2  0
 10 11  1  0
 11 12  2  0
 12 13  1  0
  4 14  1  0
 14 15  2  0
 15  1  1  0
 13  5  1  0
 12  7  1  0
  1 16  1  0
  2 17  1  0
  3 18  1  0
  8 19  1  0
  9 20  1  0
 10 21  1  0
 11 22  1  0
 14 23  1  0
 15 24  1  0
M  END
$$$$

     RDKit          3D

 24 26  0  0  0  0  0  0  0  0999 V2000
    1.8880   -1.2716   -3.8931 C   0  0  0  0  0  0  0  0  0  0  0  0
    1.2749   -2.1765   -3.0175 C   0  0  0  0  0  0  0  0  0  0  0  0
    0.7069   -1.7351   -1.8318 C   0  0  0  0  0  0  0  0  0  0  0  0
    0.7511   -0.3697   -1.4920 C   0  0  0  0  0  0  0  0  0  0  0  0
    0.1564    0.0997   -0.2279 C   0  0  0  0  0  0  0  0  0  0  0  0
   -0.4056   -0.7080    0.6245 N   0  0  0  0  0  0  0  0  0  0  0  0
   -0.8915   -0.0057    1.7088 C   0  0  0  0  0  0  0  0  0  0  0  0
   -1.5664   -0.5763    2.8156 C   0  0  0  0  0  0  0  0  0  0  0  0
   -2.0104    0.2559    3.8250 C   0  0  0  0  0  0  0  0  0  0  0  0
   -1.7936    1.6501    3.7680 C   0  0  0  0  0  0  0  0  0  0  0  0
   -1.1315    2.2171    2.6830 C   0  0  0  0  0  0  0  0  0  0  0  0
   -0.6807    1.3870    1.6527 C   0  0  0  0  0  0  0  0  0  0  0  0
    0.1585    1.7853    0.2074 S   0  0  0  0  0  0  0  0  0  0  0  0
    1.3655    0.5272   -2.3712 C   0  0  0  0  0  0  0  0  0  0  0  0
    1.9293    0.0795   -3.5625 C   0  0  0  0  0  0  0  0  0  0  0  0
    2.3280   -1.6219   -4.8180 H   0  0  0  0  0  0  0  0  0  0  0  0
    1.2384   -3.2327   -3.2673 H   0  0  0  0  0  0  0  0  0  0  0  0
    0.2256   -2.4422   -1.1641 H   0  0  0  0  0  0  0  0  0  0  0  0
   -1.7229   -1.6471    2.8499 H   0  0  0  0  0  0  0  0  0  0  0  0
   -2.5249   -0.1682    4.6747 H   0  0  0  0  0  0  0  0  0  0  0  0
   -2.1479    2.2778    4.5708 H   0  0  0  0  0  0  0  0  0  0  0  0
   -0.9577    3.2889    2.6278 H   0  0  0  0  0  0  0  0  0  0  0  0
    1.4096    1.5936   -2.1352 H   0  0  0  0  0  0  0  0  0  0  0  0
    2.4011    0.7930   -4.2275 H   0  0  0  0  0  0  0  0  0  0  0  0
  1  2  2  0
  2  3  1  0
  3  4  2  0
  4  5  1  0
  5  6  2  0
  6  7  1  0
  7  8  2  0
  8  9  1  0
  9 10  2  0
 10 11  1  0
 11 12  2  0
 12 13  1  0
  4 14  1  0
 14 15  2  0
 15  1  1  0
 13  5  1  0
 12  7  1  0
  1 16  1  0
  2 17  1  0
  3 18  1  0
  8 19  1  0
  9 20  1  0
 10 21  1  0
 11 22  1  0
 14 23  1  0
 15 24  1  0
M  END
$$$$

     RDKit          3D

 24 26  0  0  0  0  0  0  0  0999 V2000
   -2.3855   -3.4662   -1.6273 C   0  0  0  0  0  0  0  0  0  0  0  0
   -1.0169   -3.3081   -1.8749 C   0  0  0  0  0  0  0  0  0  0  0  0
   -0.3261   -2.2261   -1.3480 C   0  0  0  0  0  0  0  0  0  0  0  0
   -0.9980   -1.2730   -0.5604 C   0  0  0  0  0  0  0  0  0  0  0  0
   -0.2664   -0.1224   -0.0010 C   0  0  0  0  0  0  0  0  0  0  0  0
    1.0012    0.0734   -0.2159 N   0  0  0  0  0  0  0  0  0  0  0  0
    1.4276    1.2247    0.4173 C   0  0  0  0  0  0  0  0  0  0  0  0
    2.7487    1.7324    0.3848 C   0  0  0  0  0  0  0  0  0  0  0  0
    3.0306    2.8998    1.0692 C   0  0  0  0  0  0  0  0  0  0  0  0
    2.0287    3.5808    1.7942 C   0  0  0  0  0  0  0  0  0  0  0  0
    0.7284    3.0881    1.8318 C   0  0  0  0  0  0  0  0  0  0  0  0
    0.4292    1.9067    1.1427 C   0  0  0  0  0  0  0  0  0  0  0  0
   -1.0621    1.0671    0.9915 S   0  0  0  0  0  0  0  0  0  0  0  0
   -2.3647   -1.4375   -0.3194 C   0  0  0  0  0  0  0  0  0  0  0  0
   -3.0524   -2.5255   -0.8485 C   0  0  0  0  0  0  0  0  0  0  0  0
   -2.9190   -4.3145   -2.0346 H   0  0  0  0  0  0  0  0  0  0  0  0
   -0.4864   -4.0344   -2.4817 H   0  0  0  0  0  0  0  0  0  0  0  0
    0.7357   -2.1106   -1.5447 H   0  0  0  0  0  0  0  0  0  0  0  0
    3.5106    1.1986   -0.1723 H   0  0  0  0  0  0  0  0  0  0  0  0
    4.0327    3.2971    1.0478 H   0  0  0  0  0  0  0  0  0  0  0  0
    2.2790    4.4900    2.3220 H   0  0  0  0  0  0  0  0  0  0  0  0
   -0.0521    3.6062    2.3826 H   0  0  0  0  0  0  0  0  0  0  0  0
   -2.9109   -0.7149    0.2926 H   0  0  0  0  0  0  0  0  0  0  0  0
   -4.1119   -2.6315   -0.6480 H   0  0  0  0  0  0  0  0  0  0  0  0
  1  2  2  0
  2  3  1  0
  3  4  2  0
  4  5  1  0
  5  6  2  0
  6  7  1  0
  7  8  2  0
  8  9  1  0
  9 10  2  0
 10 11  1  0
 11 12  2  0
 12 13  1  0
  4 14  1  0
 14 15  2  0
 15  1  1  0
 13  5  1  0
 12  7  1  0
  1 16  1  0
  2 17  1  0
  3 18  1  0
  8 19  1  0
  9 20  1  0
 10 21  1  0
 11 22  1  0
 14 23  1  0
 15 24  1  0
M  END
$$$$

     RDKit          3D

 24 26  0  0  0  0  0  0  0  0999 V2000
   -2.0662   -0.9052    3.9060 C   0  0  0  0  0  0  0  0  0  0  0  0
   -2.5218    0.0797    3.0207 C   0  0  0  0  0  0  0  0  0  0  0  0
   -1.8493    0.3226    1.8316 C   0  0  0  0  0  0  0  0  0  0  0  0
   -0.6993   -0.4200    1.5031 C   0  0  0  0  0  0  0  0  0  0  0  0
    0.0139   -0.1664    0.2389 C   0  0  0  0  0  0  0  0  0  0  0  0
   -0.3738    0.7366   -0.6158 N   0  0  0  0  0  0  0  0  0  0  0  0
    0.4713    0.7601   -1.7071 C   0  0  0  0  0  0  0  0  0  0  0  0
    0.3328    1.6159   -2.8272 C   0  0  0  0  0  0  0  0  0  0  0  0
    1.2539    1.5238   -3.8528 C   0  0  0  0  0  0  0  0  0  0  0  0
    2.3221    0.6033   -3.7923 C   0  0  0  0  0  0  0  0  0  0  0  0
    2.4652   -0.2390   -2.6933 C   0  0  0  0  0  0  0  0  0  0  0  0
    1.5329   -0.1648   -1.6544 C   0  0  0  0  0  0  0  0  0  0  0  0
    1.4394   -1.0662   -0.1969 S   0  0  0  0  0  0  0  0  0  0  0  0
   -0.2487   -1.3991    2.3941 C   0  0  0  0  0  0  0  0  0  0  0  0
   -0.9280   -1.6396    3.5859 C   0  0  0  0  0  0  0  0  0  0  0  0
   -2.5952   -1.0911    4.8315 H   0  0  0  0  0  0  0  0  0  0  0  0
   -3.4095    0.6563    3.2611 H   0  0  0  0  0  0  0  0  0  0  0  0
   -2.2043    1.0925    1.1522 H   0  0  0  0  0  0  0  0  0  0  0  0
   -0.4889    2.3203   -2.8581 H   0  0  0  0  0  0  0  0  0  0  0  0
    1.1524    2.1632   -4.7165 H   0  0  0  0  0  0  0  0  0  0  0  0
    3.0325    0.5570   -4.6053 H   0  0  0  0  0  0  0  0  0  0  0  0
    3.2867   -0.9470   -2.6313 H   0  0  0  0  0  0  0  0  0  0  0  0
    0.6408   -1.9905    2.1645 H   0  0  0  0  0  0  0  0  0  0  0  0
   -0.5591   -2.4024    4.2614 H   0  0  0  0  0  0  0  0  0  0  0  0
  1  2  2  0
  2  3  1  0
  3  4  2  0
  4  5  1  0
  5  6  2  0
  6  7  1  0
  7  8  2  0
  8  9  1  0
  9 10  2  0
 10 11  1  0
 11 12  2  0
 12 13  1  0
  4 14  1  0
 14 15  2  0
 15  1  1  0
 13  5  1  0
 12  7  1  0
  1 16  1  0
  2 17  1  0
  3 18  1  0
  8 19  1  0
  9 20  1  0
 10 21  1  0
 11 22  1  0
 14 23  1  0
 15 24  1  0
M  END
$$$$

     RDKit          3D

 24 26  0  0  0  0  0  0  0  0999 V2000
   -2.0104    3.4616    2.0784 C   0  0  0  0  0  0  0  0  0  0  0  0
   -1.9475    2.1788    2.6351 C   0  0  0  0  0  0  0  0  0  0  0  0
   -1.3133    1.1481    1.9565 C   0  0  0  0  0  0  0  0  0  0  0  0
   -0.7334    1.3801    0.6952 C   0  0  0  0  0  0  0  0  0  0  0  0
   -0.0642    0.2856   -0.0288 C   0  0  0  0  0  0  0  0  0  0  0  0
    0.0341   -0.9175    0.4574 N   0  0  0  0  0  0  0  0  0  0  0  0
    0.7011   -1.7425   -0.4256 C   0  0  0  0  0  0  0  0  0  0  0  0
    0.9756   -3.1145   -0.2088 C   0  0  0  0  0  0  0  0  0  0  0  0
    1.6595   -3.8175   -1.1824 C   0  0  0  0  0  0  0  0  0  0  0  0
    2.0789   -3.1915   -2.3757 C   0  0  0  0  0  0  0  0  0  0  0  0
    1.8142   -1.8430   -2.5946 C   0  0  0  0  0  0  0  0  0  0  0  0
    1.1237   -1.1186   -1.6167 C   0  0  0  0  0  0  0  0  0  0  0  0
    0.6430    0.5311   -1.6015 S   0  0  0  0  0  0  0  0  0  0  0  0
   -0.8009    2.6636    0.1467 C   0  0  0  0  0  0  0  0  0  0  0  0
   -1.4333    3.6965    0.8339 C   0  0  0  0  0  0  0  0  0  0  0  0
   -2.5032    4.2644    2.6122 H   0  0  0  0  0  0  0  0  0  0  0  0
   -2.3884    1.9857    3.6083 H   0  0  0  0  0  0  0  0  0  0  0  0
   -1.2727    0.1567    2.3959 H   0  0  0  0  0  0  0  0  0  0  0  0
    0.6466   -3.5858    0.7093 H   0  0  0  0  0  0  0  0  0  0  0  0
    1.8734   -4.8638   -1.0290 H   0  0  0  0  0  0  0  0  0  0  0  0
    2.6079   -3.7671   -3.1216 H   0  0  0  0  0  0  0  0  0  0  0  0
    2.1336   -1.3492   -3.5082 H   0  0  0  0  0  0  0  0  0  0  0  0
   -0.3493    2.8753   -0.8254 H   0  0  0  0  0  0  0  0  0  0  0  0
   -1.4750    4.6837    0.3894 H   0  0  0  0  0  0  0  0  0  0  0  0
  1  2  2  0
  2  3  1  0
  3  4  2  0
  4  5  1  0
  5  6  2  0
  6  7  1  0
  7  8  2  0
  8  9  1  0
  9 10  2  0
 10 11  1  0
 11 12  2  0
 12 13  1  0
  4 14  1  0
 14 15  2  0
 15  1  1  0
 13  5  1  0
 12  7  1  0
  1 16  1  0
  2 17  1  0
  3 18  1  0
  8 19  1  0
  9 20  1  0
 10 21  1  0
 11 22  1  0
 14 23  1  0
 15 24  1  0
M  END
$$$$

     RDKit          3D

 24 26  0  0  0  0  0  0  0  0999 V2000
   -4.2175    1.4995   -0.5621 C   0  0  0  0  0  0  0  0  0  0  0  0
   -3.1995    2.2970   -0.0256 C   0  0  0  0  0  0  0  0  0  0  0  0
   -1.9161    1.7915    0.1309 C   0  0  0  0  0  0  0  0  0  0  0  0
   -1.6256    0.4678   -0.2482 C   0  0  0  0  0  0  0  0  0  0  0  0
   -0.2657   -0.0767   -0.0809 C   0  0  0  0  0  0  0  0  0  0  0  0
    0.7153    0.6239    0.4084 N   0  0  0  0  0  0  0  0  0  0  0  0
    1.8739   -0.1251    0.4427 C   0  0  0  0  0  0  0  0  0  0  0  0
    3.1298    0.3333    0.9077 C   0  0  0  0  0  0  0  0  0  0  0  0
    4.2065   -0.5325    0.8736 C   0  0  0  0  0  0  0  0  0  0  0  0
    4.0675   -1.8536    0.3951 C   0  0  0  0  0  0  0  0  0  0  0  0
    2.8370   -2.3105   -0.0635 C   0  0  0  0  0  0  0  0  0  0  0  0
    1.7407   -1.4423   -0.0418 C   0  0  0  0  0  0  0  0  0  0  0  0
    0.1206   -1.7127   -0.5373 S   0  0  0  0  0  0  0  0  0  0  0  0
   -2.6474   -0.3202   -0.7860 C   0  0  0  0  0  0  0  0  0  0  0  0
   -3.9336    0.1915   -0.9403 C   0  0  0  0  0  0  0  0  0  0  0  0
   -5.2175    1.8983   -0.6815 H   0  0  0  0  0  0  0  0  0  0  0  0
   -3.4127    3.3190    0.2695 H   0  0  0  0  0  0  0  0  0  0  0  0
   -1.1354    2.4197    0.5487 H   0  0  0  0  0  0  0  0  0  0  0  0
    3.2240    1.3493    1.2740 H   0  0  0  0  0  0  0  0  0  0  0  0
    5.1703   -0.1941    1.2192 H   0  0  0  0  0  0  0  0  0  0  0  0
    4.9259   -2.5103    0.3830 H   0  0  0  0  0  0  0  0  0  0  0  0
    2.7187   -3.3248   -0.4344 H   0  0  0  0  0  0  0  0  0  0  0  0
   -2.4494   -1.3481   -1.0967 H   0  0  0  0  0  0  0  0  0  0  0  0
   -4.7100   -0.4399   -1.3546 H   0  0  0  0  0  0  0  0  0  0  0  0
  1  2  2  0
  2  3  1  0
  3  4  2  0
  4  5  1  0
  5  6  2  0
  6  7  1  0
  7  8  2  0
  8  9  1  0
  9 10  2  0
 10 11  1  0
 11 12  2  0
 12 13  1  0
  4 14  1  0
 14 15  2  0
 15  1  1  0
 13  5  1  0
 12  7  1  0
  1 16  1  0
  2 17  1  0
  3 18  1  0
  8 19  1  0
  9 20  1  0
 10 21  1  0
 11 22  1  0
 14 23  1  0
 15 24  1  0
M  END
$$$$

     RDKit          3D

 24 26  0  0  0  0  0  0  0  0999 V2000
    2.3560   -1.3696    3.5945 C   0  0  0  0  0  0  0  0  0  0  0  0
    1.0644   -0.8812    3.8043 C   0  0  0  0  0  0  0  0  0  0  0  0
    0.2979   -0.4459    2.7362 C   0  0  0  0  0  0  0  0  0  0  0  0
    0.8021   -0.4872    1.4292 C   0  0  0  0  0  0  0  0  0  0  0  0
   -0.0156   -0.0288    0.2914 C   0  0  0  0  0  0  0  0  0  0  0  0
    0.4263   -0.0359   -0.9315 N   0  0  0  0  0  0  0  0  0  0  0  0
   -0.5390    0.4391   -1.7967 C   0  0  0  0  0  0  0  0  0  0  0  0
   -0.3835    0.5660   -3.1975 C   0  0  0  0  0  0  0  0  0  0  0  0
   -1.4355    1.0654   -3.9401 C   0  0  0  0  0  0  0  0  0  0  0  0
   -2.6497    1.4398   -3.3241 C   0  0  0  0  0  0  0  0  0  0  0  0
   -2.8099    1.3172   -1.9480 C   0  0  0  0  0  0  0  0  0  0  0  0
   -1.7502    0.8182   -1.1837 C   0  0  0  0  0  0  0  0  0  0  0  0
   -1.6447    0.5513    0.5091 S   0  0  0  0  0  0  0  0  0  0  0  0
    2.1035   -0.9743    1.2196 C   0  0  0  0  0  0  0  0  0  0  0  0
    2.8713   -1.4118    2.2987 C   0  0  0  0  0  0  0  0  0  0  0  0
    2.9510   -1.7111    4.4325 H   0  0  0  0  0  0  0  0  0  0  0  0
    0.6516   -0.8457    4.8056 H   0  0  0  0  0  0  0  0  0  0  0  0
   -0.7106   -0.0671    2.9222 H   0  0  0  0  0  0  0  0  0  0  0  0
    0.5536    0.2789   -3.6578 H   0  0  0  0  0  0  0  0  0  0  0  0
   -1.3287    1.1644   -5.0087 H   0  0  0  0  0  0  0  0  0  0  0  0
   -3.4558    1.8243   -3.9299 H   0  0  0  0  0  0  0  0  0  0  0  0
   -3.7413    1.6002   -1.4644 H   0  0  0  0  0  0  0  0  0  0  0  0
    2.5129   -1.0198    0.2167 H   0  0  0  0  0  0  0  0  0  0  0  0
    3.8740   -1.7864    2.1226 H   0  0  0  0  0  0  0  0  0  0  0  0
  1  2  2  0
  2  3  1  0
  3  4  2  0
  4  5  1  0
  5  6  2  0
  6  7  1  0
  7  8  2  0
  8  9  1  0
  9 10  2  0
 10 11  1  0
 11 12  2  0
 12 13  1  0
  4 14  1  0
 14 15  2  0
 15  1  1  0
 13  5  1  0
 12  7  1  0
  1 16  1  0
  2 17  1  0
  3 18  1  0
  8 19  1  0
  9 20  1  0
 10 21  1  0
 11 22  1  0
 14 23  1  0
 15 24  1  0
M  END
$$$$
