
     RDKit          3D

 28 30  0  0  0  0  0  0  0  0999 V2000
   -3.3178   -3.8075    2.4240 C   0  0  0  0  0  0  0  0  0  0  0  0
   -1.9656   -3.9224    1.9634 O   0  0  0  0  0  0  0  0  0  0  0  0
   -1.3972   -2.8271    1.4033 C   0  0  0  0  0  0  0  0  0  0  0  0
   -0.0700   -2.9672    0.9709 C   0  0  0  0  0  0  0  0  0  0  0  0
    0.5879   -1.9038    0.3950 C   0  0  0  0  0  0  0  0  0  0  0  0
   -0.0522   -0.6757    0.2305 C   0  0  0  0  0  0  0  0  0  0  0  0
    0.6519    0.4307   -0.3757 C   0  0  0  0  0  0  0  0  0  0  0  0
    1.8648    0.4439   -0.8307 N   0  0  0  0  0  0  0  0  0  0  0  0
    2.0378    1.7254   -1.3000 C   0  0  0  0  0  0  0  0  0  0  0  0
    3.1422    2.3630   -1.9125 C   0  0  0  0  0  0  0  0  0  0  0  0
    3.0105    3.6903   -2.2752 C   0  0  0  0  0  0  0  0  0  0  0  0
    1.8098    4.3960   -2.0410 C   0  0  0  0  0  0  0  0  0  0  0  0
    0.7172    3.7781   -1.4379 C   0  0  0  0  0  0  0  0  0  0  0  0
    0.8773    2.4481   -1.0857 C   0  0  0  0  0  0  0  0  0  0  0  0
   -0.0167    1.6169   -0.4942 O   0  0  0  0  0  0  0  0  0  0  0  0
   -1.3786   -0.5443    0.6604 C   0  0  0  0  0  0  0  0  0  0  0  0
   -2.0467   -1.5990    1.2386 C   0  0  0  0  0  0  0  0  0  0  0  0
   -3.9881   -3.5680    1.5987 H   0  0  0  0  0  0  0  0  0  0  0  0
   -3.5755   -4.7808    2.8414 H   0  0  0  0  0  0  0  0  0  0  0  0
   -3.4007   -3.0429    3.1997 H   0  0  0  0  0  0  0  0  0  0  0  0
    0.4295   -3.9190    1.0936 H   0  0  0  0  0  0  0  0  0  0  0  0
    1.6140   -2.0203    0.0609 H   0  0  0  0  0  0  0  0  0  0  0  0
    4.0597    1.8203   -2.0920 H   0  0  0  0  0  0  0  0  0  0  0  0
    3.8375    4.1939   -2.7438 H   0  0  0  0  0  0  0  0  0  0  0  0
    1.7347    5.4283   -2.3300 H   0  0  0  0  0  0  0  0  0  0  0  0
   -0.2168    4.2997   -1.2523 H   0  0  0  0  0  0  0  0  0  0  0  0
   -1.8787    0.4024    0.5355 H   0  0  0  0  0  0  0  0  0  0  0  0
   -3.0703   -1.4589    1.5555 H   0  0  0  0  0  0  0  0  0  0  0  0
  1  2  1  0
  2  3  1  0
  3  4  1  0
  4  5  2  0
  5  6  1  0
  6  7  1  0
  7  8  2  0
  8  9  1  0
  9 10  2  0
 10 11  1  0
 11 12  2  0
 12 13  1  0
 13 14  2  0
 14 15  1  0
  6 16  2  0
 16 17  1  0
 17  3  2  0
 15  7  1  0
 14  9  1  0
  1 18  1  0
  1 19  1  0
  1 20  1  0
  4 21  1  0
  5 22  1  0
 10 23  1  0
 11 24  1  0
 12 25  1  0
 13 26  1  0
 16 27  1  0
 17 28  1  0
M  END
$$$$

     RDKit          3D

 28 30  0  0  0  0  0  0  0  0999 V2000
    4.8074   -0.0825    2.8724 C   0  0  0  0  0  0  0  0  0  0  0  0
    4.4342    0.6905    1.7261 O   0  0  0  0  0  0  0  0  0  0  0  0
    3.1895    0.5033    1.2213 C   0  0  0  0  0  0  0  0  0  0  0  0
    2.8637    1.2592    0.0874 C   0  0  0  0  0  0  0  0  0  0  0  0
    1.6209    1.1411   -0.4925 C   0  0  0  0  0  0  0  0  0  0  0  0
    0.6690    0.2664    0.0342 C   0  0  0  0  0  0  0  0  0  0  0  0
   -0.6361    0.1532   -0.5751 C   0  0  0  0  0  0  0  0  0  0  0  0
   -1.0888    0.7830   -1.6102 N   0  0  0  0  0  0  0  0  0  0  0  0
   -2.3746    0.3150   -1.7596 C   0  0  0  0  0  0  0  0  0  0  0  0
   -3.3846    0.6256   -2.7001 C   0  0  0  0  0  0  0  0  0  0  0  0
   -4.5997   -0.0218   -2.5926 C   0  0  0  0  0  0  0  0  0  0  0  0
   -4.8332   -0.9687   -1.5717 C   0  0  0  0  0  0  0  0  0  0  0  0
   -3.8492   -1.2755   -0.6354 C   0  0  0  0  0  0  0  0  0  0  0  0
   -2.6404   -0.6101   -0.7664 C   0  0  0  0  0  0  0  0  0  0  0  0
   -1.5230   -0.7179   -0.0039 O   0  0  0  0  0  0  0  0  0  0  0  0
    1.0052   -0.4900    1.1639 C   0  0  0  0  0  0  0  0  0  0  0  0
    2.2410   -0.3757    1.7548 C   0  0  0  0  0  0  0  0  0  0  0  0
    4.7722   -1.1473    2.6434 H   0  0  0  0  0  0  0  0  0  0  0  0
    5.8302    0.2127    3.1153 H   0  0  0  0  0  0  0  0  0  0  0  0
    4.1538    0.1308    3.7169 H   0  0  0  0  0  0  0  0  0  0  0  0
    3.6025    1.9345   -0.3250 H   0  0  0  0  0  0  0  0  0  0  0  0
    1.3798    1.7330   -1.3701 H   0  0  0  0  0  0  0  0  0  0  0  0
   -3.1994    1.3504   -3.4794 H   0  0  0  0  0  0  0  0  0  0  0  0
   -5.3810    0.1963   -3.3002 H   0  0  0  0  0  0  0  0  0  0  0  0
   -5.7860   -1.4625   -1.5133 H   0  0  0  0  0  0  0  0  0  0  0  0
   -4.0115   -2.0003    0.1552 H   0  0  0  0  0  0  0  0  0  0  0  0
    0.2774   -1.1709    1.5759 H   0  0  0  0  0  0  0  0  0  0  0  0
    2.4606   -0.9717    2.6288 H   0  0  0  0  0  0  0  0  0  0  0  0
  1  2  1  0
  2  3  1  0
  3  4  1  0
  4  5  2  0
  5  6  1  0
  6  7  1  0
  7  8  2  0
  8  9  1  0
  9 10  2  0
 10 11  1  0
 11 12  2  0
 12 13  1  0
 13 14  2  0
 14 15  1  0
  6 16  2  0
 16 17  1  0
 17  3  2  0
 15  7  1  0
 14  9  1  0
  1 18  1  0
  1 19  1  0
  1 20  1  0
  4 21  1  0
  5 22  1  0
 10 23  1  0
 11 24  1  0
 12 25  1  0
 13 26  1  0
 16 27  1  0
 17 28  1  0
M  END
$$$$

     RDKit          3D

 28 30  0  0  0  0  0  0  0  0999 V2000
   -4.5212    0.7072    3.2335 C   0  0  0  0  0  0  0  0  0  0  0  0
   -3.1294    0.8286    3.5555 O   0  0  0  0  0  0  0  0  0  0  0  0
   -2.2352    0.5873    2.5653 C   0  0  0  0  0  0  0  0  0  0  0  0
   -0.8816    0.7210    2.9046 C   0  0  0  0  0  0  0  0  0  0  0  0
    0.0940    0.5003    1.9594 C   0  0  0  0  0  0  0  0  0  0  0  0
   -0.2452    0.1379    0.6544 C   0  0  0  0  0  0  0  0  0  0  0  0
    0.7932   -0.0844   -0.3252 C   0  0  0  0  0  0  0  0  0  0  0  0
    2.0725    0.0213   -0.1541 N   0  0  0  0  0  0  0  0  0  0  0  0
    2.6077   -0.2769   -1.3864 C   0  0  0  0  0  0  0  0  0  0  0  0
    3.9454   -0.3222   -1.8418 C   0  0  0  0  0  0  0  0  0  0  0  0
    4.1756   -0.6492   -3.1640 C   0  0  0  0  0  0  0  0  0  0  0  0
    3.1055   -0.9304   -4.0414 C   0  0  0  0  0  0  0  0  0  0  0  0
    1.7841   -0.8872   -3.6033 C   0  0  0  0  0  0  0  0  0  0  0  0
    1.5820   -0.5551   -2.2722 C   0  0  0  0  0  0  0  0  0  0  0  0
    0.4138   -0.4408   -1.5882 O   0  0  0  0  0  0  0  0  0  0  0  0
   -1.5988    0.0024    0.3249 C   0  0  0  0  0  0  0  0  0  0  0  0
   -2.5825    0.2227    1.2605 C   0  0  0  0  0  0  0  0  0  0  0  0
   -4.8026    1.4111    2.4479 H   0  0  0  0  0  0  0  0  0  0  0  0
   -4.7571   -0.3064    2.9142 H   0  0  0  0  0  0  0  0  0  0  0  0
   -5.0637    0.9441    4.1494 H   0  0  0  0  0  0  0  0  0  0  0  0
   -0.6145    1.0002    3.9157 H   0  0  0  0  0  0  0  0  0  0  0  0
    1.1394    0.6042    2.2298 H   0  0  0  0  0  0  0  0  0  0  0  0
    4.7609   -0.1048   -1.1663 H   0  0  0  0  0  0  0  0  0  0  0  0
    5.1867   -0.6897   -3.5301 H   0  0  0  0  0  0  0  0  0  0  0  0
    3.3121   -1.1785   -5.0663 H   0  0  0  0  0  0  0  0  0  0  0  0
    0.9476   -1.0946   -4.2632 H   0  0  0  0  0  0  0  0  0  0  0  0
   -1.8723   -0.2744   -0.6809 H   0  0  0  0  0  0  0  0  0  0  0  0
   -3.6162    0.1063    0.9686 H   0  0  0  0  0  0  0  0  0  0  0  0
  1  2  1  0
  2  3  1  0
  3  4  1  0
  4  5  2  0
  5  6  1  0
  6  7  1  0
  7  8  2  0
  8  9  1  0
  9 10  2  0
 10 11  1  0
 11 12  2  0
 12 13  1  0
 13 14  2  0
 14 15  1  0
  6 16  2  0
 16 17  1  0
 17  3  2  0
 15  7  1  0
 14  9  1  0
  1 18  1  0
  1 19  1  0
  1 20  1  0
  4 21  1  0
  5 22  1  0
 10 23  1  0
 11 24  1  0
 12 25  1  0
 13 26  1  0
 16 27  1  0
 17 28  1  0
M  END
$$$$

     RDKit          3D

 28 30  0  0  0  0  0  0  0  0999 V2000
    3.5008   -4.2661   -1.1759 C   0  0  0  0  0  0  0  0  0  0  0  0
    2.8590   -3.8493    0.0350 O   0  0  0  0  0  0  0  0  0  0  0  0
    2.0578   -2.7549   -0.0224 C   0  0  0  0  0  0  0  0  0  0  0  0
    1.8210   -2.0082   -1.1822 C   0  0  0  0  0  0  0  0  0  0  0  0
    0.9892   -0.9051   -1.1259 C   0  0  0  0  0  0  0  0  0  0  0  0
    0.3773   -0.5264    0.0687 C   0  0  0  0  0  0  0  0  0  0  0  0
   -0.4877    0.6304    0.0925 C   0  0  0  0  0  0  0  0  0  0  0  0
   -0.7795    1.4123   -0.9008 N   0  0  0  0  0  0  0  0  0  0  0  0
   -1.6330    2.3446   -0.3605 C   0  0  0  0  0  0  0  0  0  0  0  0
   -2.2945    3.4550   -0.9328 C   0  0  0  0  0  0  0  0  0  0  0  0
   -3.1095    4.2226   -0.1158 C   0  0  0  0  0  0  0  0  0  0  0  0
   -3.2772    3.9081    1.2503 C   0  0  0  0  0  0  0  0  0  0  0  0
   -2.6265    2.8219    1.8221 C   0  0  0  0  0  0  0  0  0  0  0  0
   -1.8151    2.0715    0.9829 C   0  0  0  0  0  0  0  0  0  0  0  0
   -1.0774    0.9652    1.2737 O   0  0  0  0  0  0  0  0  0  0  0  0
    0.6205   -1.2814    1.2224 C   0  0  0  0  0  0  0  0  0  0  0  0
    1.4465   -2.3766    1.1784 C   0  0  0  0  0  0  0  0  0  0  0  0
    2.7579   -4.5182   -1.9350 H   0  0  0  0  0  0  0  0  0  0  0  0
    4.0833   -5.1509   -0.9191 H   0  0  0  0  0  0  0  0  0  0  0  0
    4.1545   -3.4807   -1.5517 H   0  0  0  0  0  0  0  0  0  0  0  0
    2.2782   -2.2753   -2.1236 H   0  0  0  0  0  0  0  0  0  0  0  0
    0.8074   -0.3297   -2.0260 H   0  0  0  0  0  0  0  0  0  0  0  0
   -2.1596    3.6935   -1.9798 H   0  0  0  0  0  0  0  0  0  0  0  0
   -3.6255    5.0720   -0.5305 H   0  0  0  0  0  0  0  0  0  0  0  0
   -3.9167    4.5193    1.8607 H   0  0  0  0  0  0  0  0  0  0  0  0
   -2.7430    2.5601    2.8677 H   0  0  0  0  0  0  0  0  0  0  0  0
    0.1563   -0.9961    2.1553 H   0  0  0  0  0  0  0  0  0  0  0  0
    1.6356   -2.9577    2.0723 H   0  0  0  0  0  0  0  0  0  0  0  0
  1  2  1  0
  2  3  1  0
  3  4  1  0
  4  5  2  0
  5  6  1  0
  6  7  1  0
  7  8  2  0
  8  9  1  0
  9 10  2  0
 10 11  1  0
 11 12  2  0
 12 13  1  0
 13 14  2  0
 14 15  1  0
  6 16  2  0
 16 17  1  0
 17  3  2  0
 15  7  1  0
 14  9  1  0
  1 18  1  0
  1 19  1  0
  1 20  1  0
  4 21  1  0
  5 22  1  0
 10 23  1  0
 11 24  1  0
 12 25  1  0
 13 26  1  0
 16 27  1  0
 17 28  1  0
M  END
$$$$

     RDKit          3D

 28 30  0  0  0  0  0  0  0  0999 V2000
   -0.0828    3.0509   -4.7494 C   0  0  0  0  0  0  0  0  0  0  0  0
    0.7737    3.0636   -3.6046 O   0  0  0  0  0  0  0  0  0  0  0  0
    0.5121    2.1783   -2.6106 C   0  0  0  0  0  0  0  0  0  0  0  0
   -0.5350    1.2496   -2.6291 C   0  0  0  0  0  0  0  0  0  0  0  0
   -0.7087    0.3948   -1.5549 C   0  0  0  0  0  0  0  0  0  0  0  0
    0.1486    0.4352   -0.4572 C   0  0  0  0  0  0  0  0  0  0  0  0
   -0.0535   -0.4774    0.6454 C   0  0  0  0  0  0  0  0  0  0  0  0
   -0.9912   -1.3655    0.7686 N   0  0  0  0  0  0  0  0  0  0  0  0
   -0.7385   -1.9571    1.9839 C   0  0  0  0  0  0  0  0  0  0  0  0
   -1.4097   -2.9873    2.6795 C   0  0  0  0  0  0  0  0  0  0  0  0
   -0.9164   -3.3704    3.9168 C   0  0  0  0  0  0  0  0  0  0  0  0
    0.2290   -2.7545    4.4674 C   0  0  0  0  0  0  0  0  0  0  0  0
    0.8946   -1.7416    3.7893 C   0  0  0  0  0  0  0  0  0  0  0  0
    0.3768   -1.3727    2.5553 C   0  0  0  0  0  0  0  0  0  0  0  0
    0.8202   -0.4213    1.6893 O   0  0  0  0  0  0  0  0  0  0  0  0
    1.1924    1.3673   -0.4527 C   0  0  0  0  0  0  0  0  0  0  0  0
    1.3689    2.2270   -1.5073 C   0  0  0  0  0  0  0  0  0  0  0  0
   -1.1075    3.2745   -4.4609 H   0  0  0  0  0  0  0  0  0  0  0  0
   -0.0434    2.0827   -5.2478 H   0  0  0  0  0  0  0  0  0  0  0  0
    0.2985    3.8284   -5.4143 H   0  0  0  0  0  0  0  0  0  0  0  0
   -1.2113    1.1865   -3.4672 H   0  0  0  0  0  0  0  0  0  0  0  0
   -1.5233   -0.3207   -1.5678 H   0  0  0  0  0  0  0  0  0  0  0  0
   -2.2841   -3.4559    2.2460 H   0  0  0  0  0  0  0  0  0  0  0  0
   -1.4176   -4.1468    4.4683 H   0  0  0  0  0  0  0  0  0  0  0  0
    0.5938   -3.0729    5.4273 H   0  0  0  0  0  0  0  0  0  0  0  0
    1.7772   -1.2560    4.1923 H   0  0  0  0  0  0  0  0  0  0  0  0
    1.8626    1.4115    0.3919 H   0  0  0  0  0  0  0  0  0  0  0  0
    2.1747    2.9496   -1.4974 H   0  0  0  0  0  0  0  0  0  0  0  0
  1  2  1  0
  2  3  1  0
  3  4  1  0
  4  5  2  0
  5  6  1  0
  6  7  1  0
  7  8  2  0
  8  9  1  0
  9 10  2  0
 10 11  1  0
 11 12  2  0
 12 13  1  0
 13 14  2  0
 14 15  1  0
  6 16  2  0
 16 17  1  0
 17  3  2  0
 15  7  1  0
 14  9  1  0
  1 18  1  0
  1 19  1  0
  1 20  1  0
  4 21  1  0
  5 22  1  0
 10 23  1  0
 11 24  1  0
 12 25  1  0
 13 26  1  0
 16 27  1  0
 17 28  1  0
M  END
$$$$

     RDKit          3D

 28 30  0  0  0  0  0  0  0  0999 V2000
   -3.2405    2.2451   -3.9850 C   0  0  0  0  0  0  0  0  0  0  0  0
   -3.3897    1.0213   -3.2540 O   0  0  0  0  0  0  0  0  0  0  0  0
   -2.4337    0.7191   -2.3402 C   0  0  0  0  0  0  0  0  0  0  0  0
   -2.5958   -0.4897   -1.6508 C   0  0  0  0  0  0  0  0  0  0  0  0
   -1.6796   -0.8750   -0.6993 C   0  0  0  0  0  0  0  0  0  0  0  0
   -0.5750   -0.0725   -0.4084 C   0  0  0  0  0  0  0  0  0  0  0  0
    0.3734   -0.4940    0.5968 C   0  0  0  0  0  0  0  0  0  0  0  0
    0.3455   -1.5845    1.2942 N   0  0  0  0  0  0  0  0  0  0  0  0
    1.4573   -1.5020    2.1014 C   0  0  0  0  0  0  0  0  0  0  0  0
    1.9698   -2.3766    3.0886 C   0  0  0  0  0  0  0  0  0  0  0  0
    3.1239   -2.0079    3.7519 C   0  0  0  0  0  0  0  0  0  0  0  0
    3.7802   -0.7930    3.4546 C   0  0  0  0  0  0  0  0  0  0  0  0
    3.2842    0.0755    2.4861 C   0  0  0  0  0  0  0  0  0  0  0  0
    2.1223   -0.3168    1.8393 C   0  0  0  0  0  0  0  0  0  0  0  0
    1.4283    0.3306    0.8675 O   0  0  0  0  0  0  0  0  0  0  0  0
   -0.4179    1.1331   -1.1034 C   0  0  0  0  0  0  0  0  0  0  0  0
   -1.3295    1.5289   -2.0546 C   0  0  0  0  0  0  0  0  0  0  0  0
   -4.0969    2.2996   -4.6586 H   0  0  0  0  0  0  0  0  0  0  0  0
   -3.2467    3.1039   -3.3137 H   0  0  0  0  0  0  0  0  0  0  0  0
   -2.3141    2.2358   -4.5591 H   0  0  0  0  0  0  0  0  0  0  0  0
   -3.4500   -1.1145   -1.8766 H   0  0  0  0  0  0  0  0  0  0  0  0
   -1.8137   -1.8125   -0.1714 H   0  0  0  0  0  0  0  0  0  0  0  0
    1.4657   -3.3064    3.3127 H   0  0  0  0  0  0  0  0  0  0  0  0
    3.5292   -2.6578    4.5076 H   0  0  0  0  0  0  0  0  0  0  0  0
    4.6769   -0.5310    3.9863 H   0  0  0  0  0  0  0  0  0  0  0  0
    3.7723    1.0158    2.2437 H   0  0  0  0  0  0  0  0  0  0  0  0
    0.4304    1.7610   -0.8822 H   0  0  0  0  0  0  0  0  0  0  0  0
   -1.1765    2.4647   -2.5733 H   0  0  0  0  0  0  0  0  0  0  0  0
  1  2  1  0
  2  3  1  0
  3  4  1  0
  4  5  2  0
  5  6  1  0
  6  7  1  0
  7  8  2  0
  8  9  1  0
  9 10  2  0
 10 11  1  0
 11 12  2  0
 12 13  1  0
 13 14  2  0
 14 15  1  0
  6 16  2  0
 16 17  1  0
 17  3  2  0
 15  7  1  0
 14  9  1  0
  1 18  1  0
  1 19  1  0
  1 20  1  0
  4 21  1  0
  5 22  1  0
 10 23  1  0
 11 24  1  0
 12 25  1  0
 13 26  1  0
 16 27  1  0
 17 28  1  0
M  END
$$$$

     RDKit          3D

 28 30  0  0  0  0  0  0  0  0999 V2000
   -1.9500    4.5928   -2.5513 C   0  0  0  0  0  0  0  0  0  0  0  0
   -0.9036    3.6930   -2.9421 O   0  0  0  0  0  0  0  0  0  0  0  0
   -0.6329    2.6510   -2.1177 C   0  0  0  0  0  0  0  0  0  0  0  0
    0.3946    1.7886   -2.5259 C   0  0  0  0  0  0  0  0  0  0  0  0
    0.7383    0.7036   -1.7513 C   0  0  0  0  0  0  0  0  0  0  0  0
    0.0713    0.4448   -0.5542 C   0  0  0  0  0  0  0  0  0  0  0  0
    0.4363   -0.7058    0.2389 C   0  0  0  0  0  0  0  0  0  0  0  0
    1.3214   -1.6095   -0.0412 N   0  0  0  0  0  0  0  0  0  0  0  0
    1.2694   -2.4784    1.0243 C   0  0  0  0  0  0  0  0  0  0  0  0
    1.9803   -3.6689    1.3026 C   0  0  0  0  0  0  0  0  0  0  0  0
    1.6981   -4.3384    2.4784 C   0  0  0  0  0  0  0  0  0  0  0  0
    0.7252   -3.8537    3.3797 C   0  0  0  0  0  0  0  0  0  0  0  0
    0.0144   -2.6865    3.1122 C   0  0  0  0  0  0  0  0  0  0  0  0
    0.3176   -2.0359    1.9258 C   0  0  0  0  0  0  0  0  0  0  0  0
   -0.2161   -0.8924    1.4247 O   0  0  0  0  0  0  0  0  0  0  0  0
   -0.9520    1.3110   -0.1511 C   0  0  0  0  0  0  0  0  0  0  0  0
   -1.3037    2.3990   -0.9159 C   0  0  0  0  0  0  0  0  0  0  0  0
   -1.7115    5.0673   -1.6009 H   0  0  0  0  0  0  0  0  0  0  0  0
   -2.9016    4.0661   -2.4657 H   0  0  0  0  0  0  0  0  0  0  0  0
   -2.0139    5.3429   -3.3398 H   0  0  0  0  0  0  0  0  0  0  0  0
    0.9136    1.9849   -3.4557 H   0  0  0  0  0  0  0  0  0  0  0  0
    1.5343    0.0412   -2.0737 H   0  0  0  0  0  0  0  0  0  0  0  0
    2.7218   -4.0422    0.6104 H   0  0  0  0  0  0  0  0  0  0  0  0
    2.2290   -5.2459    2.7098 H   0  0  0  0  0  0  0  0  0  0  0  0
    0.5274   -4.3932    4.2888 H   0  0  0  0  0  0  0  0  0  0  0  0
   -0.7388   -2.2981    3.7904 H   0  0  0  0  0  0  0  0  0  0  0  0
   -1.4731    1.1156    0.7716 H   0  0  0  0  0  0  0  0  0  0  0  0
   -2.0961    3.0472   -0.5710 H   0  0  0  0  0  0  0  0  0  0  0  0
  1  2  1  0
  2  3  1  0
  3  4  1  0
  4  5  2  0
  5  6  1  0
  6  7  1  0
  7  8  2  0
  8  9  1  0
  9 10  2  0
 10 11  1  0
 11 12  2  0
 12 13  1  0
 13 14  2  0
 14 15  1  0
  6 16  2  0
 16 17  1  0
 17  3  2  0
 15  7  1  0
 14  9  1  0
  1 18  1  0
  1 19  1  0
  1 20  1  0
  4 21  1  0
  5 22  1  0
 10 23  1  0
 11 24  1  0
 12 25  1  0
 13 26  1  0
 16 27  1  0
 17 28  1  0
M  END
$$$$

     RDKit          3D

 28 30  0  0  0  0  0  0  0  0999 V2000
    0.8873   -3.8026   -4.0154 C   0  0  0  0  0  0  0  0  0  0  0  0
    0.9847   -2.3719   -4.0649 O   0  0  0  0  0  0  0  0  0  0  0  0
    0.7012   -1.6864   -2.9301 C   0  0  0  0  0  0  0  0  0  0  0  0
    0.8125   -0.2901   -3.0044 C   0  0  0  0  0  0  0  0  0  0  0  0
    0.5508    0.4860   -1.8979 C   0  0  0  0  0  0  0  0  0  0  0  0
    0.1688   -0.1019   -0.6913 C   0  0  0  0  0  0  0  0  0  0  0  0
   -0.0968    0.7216    0.4649 C   0  0  0  0  0  0  0  0  0  0  0  0
   -0.0838    2.0132    0.5335 N   0  0  0  0  0  0  0  0  0  0  0  0
   -0.4045    2.2892    1.8440 C   0  0  0  0  0  0  0  0  0  0  0  0
   -0.5505    3.5126    2.5395 C   0  0  0  0  0  0  0  0  0  0  0  0
   -0.8786    3.4675    3.8809 C   0  0  0  0  0  0  0  0  0  0  0  0
   -1.0661    2.2356    4.5452 C   0  0  0  0  0  0  0  0  0  0  0  0
   -0.9254    1.0260    3.8703 C   0  0  0  0  0  0  0  0  0  0  0  0
   -0.5933    1.1006    2.5259 C   0  0  0  0  0  0  0  0  0  0  0  0
   -0.4031    0.0905    1.6391 O   0  0  0  0  0  0  0  0  0  0  0  0
    0.0519   -1.4949   -0.6261 C   0  0  0  0  0  0  0  0  0  0  0  0
    0.3133   -2.2807   -1.7246 C   0  0  0  0  0  0  0  0  0  0  0  0
   -0.1324   -4.1067   -3.7754 H   0  0  0  0  0  0  0  0  0  0  0  0
    1.5755   -4.2155   -3.2775 H   0  0  0  0  0  0  0  0  0  0  0  0
    1.1584   -4.1577   -5.0089 H   0  0  0  0  0  0  0  0  0  0  0  0
    1.1062    0.1664   -3.9417 H   0  0  0  0  0  0  0  0  0  0  0  0
    0.6401    1.5673   -1.9636 H   0  0  0  0  0  0  0  0  0  0  0  0
   -0.4007    4.4527    2.0274 H   0  0  0  0  0  0  0  0  0  0  0  0
   -0.9926    4.3867    4.4298 H   0  0  0  0  0  0  0  0  0  0  0  0
   -1.3215    2.2288    5.5897 H   0  0  0  0  0  0  0  0  0  0  0  0
   -1.0670    0.0692    4.3636 H   0  0  0  0  0  0  0  0  0  0  0  0
   -0.2473   -1.9538    0.3038 H   0  0  0  0  0  0  0  0  0  0  0  0
    0.2128   -3.3518   -1.6357 H   0  0  0  0  0  0  0  0  0  0  0  0
  1  2  1  0
  2  3  1  0
  3  4  1  0
  4  5  2  0
  5  6  1  0
  6  7  1  0
  7  8  2  0
  8  9  1  0
  9 10  2  0
 10 11  1  0
 11 12  2  0
 12 13  1  0
 13 14  2  0
 14 15  1  0
  6 16  2  0
 16 17  1  0
 17  3  2  0
 15  7  1  0
 14  9  1  0
  1 18  1  0
  1 19  1  0
  1 20  1  0
  4 21  1  0
  5 22  1  0
 10 23  1  0
 11 24  1  0
 12 25  1  0
 13 26  1  0
 16 27  1  0
 17 28  1  0
M  END
$$$$

     RDKit          3D

 28 30  0  0  0  0  0  0  0  0999 V2000
    0.3282   -5.4935   -1.2571 C   0  0  0  0  0  0  0  0  0  0  0  0
    0.0355   -4.3353   -2.0428 O   0  0  0  0  0  0  0  0  0  0  0  0
    0.0337   -3.1308   -1.4160 C   0  0  0  0  0  0  0  0  0  0  0  0
    0.3033   -2.9469   -0.0550 C   0  0  0  0  0  0  0  0  0  0  0  0
    0.2800   -1.6702    0.4780 C   0  0  0  0  0  0  0  0  0  0  0  0
   -0.0111   -0.5643   -0.3188 C   0  0  0  0  0  0  0  0  0  0  0  0
   -0.0290    0.7573    0.2640 C   0  0  0  0  0  0  0  0  0  0  0  0
    0.2116    1.0786    1.4968 N   0  0  0  0  0  0  0  0  0  0  0  0
    0.0719    2.4465    1.5264 C   0  0  0  0  0  0  0  0  0  0  0  0
    0.2067    3.3827    2.5766 C   0  0  0  0  0  0  0  0  0  0  0  0
   -0.0106    4.7217    2.2922 C   0  0  0  0  0  0  0  0  0  0  0  0
   -0.3496    5.1455    0.9886 C   0  0  0  0  0  0  0  0  0  0  0  0
   -0.4828    4.2334   -0.0497 C   0  0  0  0  0  0  0  0  0  0  0  0
   -0.2654    2.8984    0.2629 C   0  0  0  0  0  0  0  0  0  0  0  0
   -0.3271    1.8091   -0.5504 O   0  0  0  0  0  0  0  0  0  0  0  0
   -0.2810   -0.7628   -1.6776 C   0  0  0  0  0  0  0  0  0  0  0  0
   -0.2609   -2.0236   -2.2177 C   0  0  0  0  0  0  0  0  0  0  0  0
   -0.4060   -5.6115   -0.4638 H   0  0  0  0  0  0  0  0  0  0  0  0
    0.2796   -6.3411   -1.9452 H   0  0  0  0  0  0  0  0  0  0  0  0
    1.3262   -5.4278   -0.8256 H   0  0  0  0  0  0  0  0  0  0  0  0
    0.5272   -3.7825    0.5892 H   0  0  0  0  0  0  0  0  0  0  0  0
    0.4962   -1.5281    1.5311 H   0  0  0  0  0  0  0  0  0  0  0  0
    0.4722    3.0538    3.5739 H   0  0  0  0  0  0  0  0  0  0  0  0
    0.0782    5.4498    3.0790 H   0  0  0  0  0  0  0  0  0  0  0  0
   -0.5124    6.1905    0.7938 H   0  0  0  0  0  0  0  0  0  0  0  0
   -0.7406    4.5375   -1.0581 H   0  0  0  0  0  0  0  0  0  0  0  0
   -0.5060    0.0859   -2.3060 H   0  0  0  0  0  0  0  0  0  0  0  0
   -0.4680   -2.1725   -3.2686 H   0  0  0  0  0  0  0  0  0  0  0  0
  1  2  1  0
  2  3  1  0
  3  4  1  0
  4  5  2  0
  5  6  1  0
  6  7  1  0
  7  8  2  0
  8  9  1  0
  9 10  2  0
 10 11  1  0
 11 12  2  0
 12 13  1  0
 13 14  2  0
 14 15  1  0
  6 16  2  0
 16 17  1  0
 17  3  2  0
 15  7  1  0
 14  9  1  0
  1 18  1  0
  1 19  1  0
  1 20  1  0
  4 21  1  0
  5 22  1  0
 10 23  1  0
 11 24  1  0
 12 25  1  0
 13 26  1  0
 16 27  1  0
 17 28  1  0
M  END
$$$$

     RDKit          3D

 28 30  0  0  0  0  0  0  0  0999 V2000
   -1.6175    1.7119    5.1279 C   0  0  0  0  0  0  0  0  0  0  0  0
   -2.3519    1.2603    3.9837 O   0  0  0  0  0  0  0  0  0  0  0  0
   -1.6428    0.9183    2.8775 C   0  0  0  0  0  0  0  0  0  0  0  0
   -0.2470    0.9752    2.7868 C   0  0  0  0  0  0  0  0  0  0  0  0
    0.3751    0.6081    1.6069 C   0  0  0  0  0  0  0  0  0  0  0  0
   -0.3640    0.1753    0.5075 C   0  0  0  0  0  0  0  0  0  0  0  0
    0.3150   -0.2167   -0.7064 C   0  0  0  0  0  0  0  0  0  0  0  0
    1.5938   -0.2259   -0.9289 N   0  0  0  0  0  0  0  0  0  0  0  0
    1.7100   -0.6860   -2.2189 C   0  0  0  0  0  0  0  0  0  0  0  0
    2.8406   -0.9195   -3.0351 C   0  0  0  0  0  0  0  0  0  0  0  0
    2.6323   -1.3896   -4.3222 C   0  0  0  0  0  0  0  0  0  0  0  0
    1.3296   -1.6356   -4.8075 C   0  0  0  0  0  0  0  0  0  0  0  0
    0.2134   -1.4072   -4.0125 C   0  0  0  0  0  0  0  0  0  0  0  0
    0.4491   -0.9323   -2.7309 C   0  0  0  0  0  0  0  0  0  0  0  0
   -0.4500   -0.6322   -1.7540 O   0  0  0  0  0  0  0  0  0  0  0  0
   -1.7593    0.1271    0.6091 C   0  0  0  0  0  0  0  0  0  0  0  0
   -2.3884    0.4894    1.7735 C   0  0  0  0  0  0  0  0  0  0  0  0
   -2.3615    1.9462    5.8914 H   0  0  0  0  0  0  0  0  0  0  0  0
   -0.9507    0.9297    5.4895 H   0  0  0  0  0  0  0  0  0  0  0  0
   -1.0421    2.6035    4.8861 H   0  0  0  0  0  0  0  0  0  0  0  0
    0.3570    1.3015    3.6196 H   0  0  0  0  0  0  0  0  0  0  0  0
    1.4567    0.6582    1.5365 H   0  0  0  0  0  0  0  0  0  0  0  0
    3.8385   -0.7373   -2.6568 H   0  0  0  0  0  0  0  0  0  0  0  0
    3.4786   -1.5708   -4.9625 H   0  0  0  0  0  0  0  0  0  0  0  0
    1.1944   -2.0075   -5.8063 H   0  0  0  0  0  0  0  0  0  0  0  0
   -0.7960   -1.5968   -4.3611 H   0  0  0  0  0  0  0  0  0  0  0  0
   -2.3456   -0.1933   -0.2400 H   0  0  0  0  0  0  0  0  0  0  0  0
   -3.4673    0.4463    1.8470 H   0  0  0  0  0  0  0  0  0  0  0  0
  1  2  1  0
  2  3  1  0
  3  4  1  0
  4  5  2  0
  5  6  1  0
  6  7  1  0
  7  8  2  0
  8  9  1  0
  9 10  2  0
 10 11  1  0
 11 12  2  0
 12 13  1  0
 13 14  2  0
 14 15  1  0
  6 16  2  0
 16 17  1  0
 17  3  2  0
 15  7  1  0
 14  9  1  0
  1 18  1  0
  1 19  1  0
  1 20  1  0
  4 21  1  0
  5 22  1  0
 10 23  1  0
 11 24  1  0
 12 25  1  0
 13 26  1  0
 16 27  1  0
 17 28  1  0
M  END
$$$$

     RDKit          3D

 28 30  0  0  0  0  0  0  0  0999 V2000
    5.4971   -1.0944   -0.6677 C   0  0  0  0  0  0  0  0  0  0  0  0
    4.3521   -1.3656   -1.4804 O   0  0  0  0  0  0  0  0  0  0  0  0
    3.1426   -0.9535   -1.0208 C   0  0  0  0  0  0  0  0  0  0  0  0
    2.9469   -0.2683    0.1830 C   0  0  0  0  0  0  0  0  0  0  0  0
    1.6667    0.1009    0.5578 C   0  0  0  0  0  0  0  0  0  0  0  0
    0.5677   -0.1953   -0.2465 C   0  0  0  0  0  0  0  0  0  0  0  0
   -0.7588    0.2027    0.1685 C   0  0  0  0  0  0  0  0  0  0  0  0
   -1.0882    0.8377    1.2490 N   0  0  0  0  0  0  0  0  0  0  0  0
   -2.4560    0.9645    1.1653 C   0  0  0  0  0  0  0  0  0  0  0  0
   -3.3984    1.5587    2.0345 C   0  0  0  0  0  0  0  0  0  0  0  0
   -4.7370    1.5162    1.6771 C   0  0  0  0  0  0  0  0  0  0  0  0
   -5.1513    0.9032    0.4751 C   0  0  0  0  0  0  0  0  0  0  0  0
   -4.2323    0.3202   -0.3868 C   0  0  0  0  0  0  0  0  0  0  0  0
   -2.8995    0.3716   -0.0029 C   0  0  0  0  0  0  0  0  0  0  0  0
   -1.8039   -0.1128   -0.6479 O   0  0  0  0  0  0  0  0  0  0  0  0
    0.7781   -0.8772   -1.4495 C   0  0  0  0  0  0  0  0  0  0  0  0
    2.0425   -1.2482   -1.8321 C   0  0  0  0  0  0  0  0  0  0  0  0
    5.6282   -0.0207   -0.5335 H   0  0  0  0  0  0  0  0  0  0  0  0
    6.3533   -1.5082   -1.2038 H   0  0  0  0  0  0  0  0  0  0  0  0
    5.3985   -1.5754    0.3042 H   0  0  0  0  0  0  0  0  0  0  0  0
    3.7759   -0.0177    0.8266 H   0  0  0  0  0  0  0  0  0  0  0  0
    1.5167    0.6297    1.4909 H   0  0  0  0  0  0  0  0  0  0  0  0
   -3.0750    2.0309    2.9532 H   0  0  0  0  0  0  0  0  0  0  0  0
   -5.4730    1.9586    2.3253 H   0  0  0  0  0  0  0  0  0  0  0  0
   -6.1957    0.8821    0.2221 H   0  0  0  0  0  0  0  0  0  0  0  0
   -4.5310   -0.1506   -1.3163 H   0  0  0  0  0  0  0  0  0  0  0  0
   -0.0664   -1.1161   -2.0795 H   0  0  0  0  0  0  0  0  0  0  0  0
    2.2000   -1.7733   -2.7647 H   0  0  0  0  0  0  0  0  0  0  0  0
  1  2  1  0
  2  3  1  0
  3  4  1  0
  4  5  2  0
  5  6  1  0
  6  7  1  0
  7  8  2  0
  8  9  1  0
  9 10  2  0
 10 11  1  0
 11 12  2  0
 12 13  1  0
 13 14  2  0
 14 15  1  0
  6 16  2  0
 16 17  1  0
 17  3  2  0
 15  7  1  0
 14  9  1  0
  1 18  1  0
  1 19  1  0
  1 20  1  0
  4 21  1  0
  5 22  1  0
 10 23  1  0
 11 24  1  0
 12 25  1  0
 13 26  1  0
 16 27  1  0
 17 28  1  0
M  END
$$$$

     RDKit          3D

 28 30  0  0  0  0  0  0  0  0999 V2000
    2.2268   -1.5457   -4.9069 C   0  0  0  0  0  0  0  0  0  0  0  0
    2.8187   -1.4778   -3.6037 O   0  0  0  0  0  0  0  0  0  0  0  0
    2.0341   -1.0626   -2.5790 C   0  0  0  0  0  0  0  0  0  0  0  0
    2.6396   -1.0154   -1.3162 C   0  0  0  0  0  0  0  0  0  0  0  0
    1.9179   -0.6092   -0.2168 C   0  0  0  0  0  0  0  0  0  0  0  0
    0.5800   -0.2336   -0.3407 C   0  0  0  0  0  0  0  0  0  0  0  0
   -0.1587    0.1943    0.8248 C   0  0  0  0  0  0  0  0  0  0  0  0
    0.2704    0.2794    2.0446 N   0  0  0  0  0  0  0  0  0  0  0  0
   -0.8145    0.7351    2.7582 C   0  0  0  0  0  0  0  0  0  0  0  0
   -0.9856    1.0248    4.1336 C   0  0  0  0  0  0  0  0  0  0  0  0
   -2.2207    1.4714    4.5594 C   0  0  0  0  0  0  0  0  0  0  0  0
   -3.2883    1.6386    3.6516 C   0  0  0  0  0  0  0  0  0  0  0  0
   -3.1318    1.3547    2.2970 C   0  0  0  0  0  0  0  0  0  0  0  0
   -1.8837    0.9040    1.8964 C   0  0  0  0  0  0  0  0  0  0  0  0
   -1.4619    0.5602    0.6512 O   0  0  0  0  0  0  0  0  0  0  0  0
   -0.0181   -0.2830   -1.6053 C   0  0  0  0  0  0  0  0  0  0  0  0
    0.6920   -0.6912   -2.7106 C   0  0  0  0  0  0  0  0  0  0  0  0
    3.0091   -1.9075   -5.5752 H   0  0  0  0  0  0  0  0  0  0  0  0
    1.3863   -2.2392   -4.9163 H   0  0  0  0  0  0  0  0  0  0  0  0
    1.8902   -0.5603   -5.2281 H   0  0  0  0  0  0  0  0  0  0  0  0
    3.6793   -1.2983   -1.2169 H   0  0  0  0  0  0  0  0  0  0  0  0
    2.3924   -0.5830    0.7584 H   0  0  0  0  0  0  0  0  0  0  0  0
   -0.1669    0.8950    4.8282 H   0  0  0  0  0  0  0  0  0  0  0  0
   -2.3710    1.6960    5.6021 H   0  0  0  0  0  0  0  0  0  0  0  0
   -4.2397    1.9882    4.0085 H   0  0  0  0  0  0  0  0  0  0  0  0
   -3.9397    1.4784    1.5834 H   0  0  0  0  0  0  0  0  0  0  0  0
   -1.0529   -0.0003   -1.7121 H   0  0  0  0  0  0  0  0  0  0  0  0
    0.1964   -0.7131   -3.6695 H   0  0  0  0  0  0  0  0  0  0  0  0
  1  2  1  0
  2  3  1  0
  3  4  1  0
  4  5  2  0
  5  6  1  0
  6  7  1  0
  7  8  2  0
  8  9  1  0
  9 10  2  0
 10 11  1  0
 11 12  2  0
 12 13  1  0
 13 14  2  0
 14 15  1  0
  6 16  2  0
 16 17  1  0
 17  3  2  0
 15  7  1  0
 14  9  1  0
  1 18  1  0
  1 19  1  0
  1 20  1  0
  4 21  1  0
  5 22  1  0
 10 23  1  0
 11 24  1  0
 12 25  1  0
 13 26  1  0
 16 27  1  0
 17 28  1  0
M  END
$$$$
