
     RDKit          3D

 24 26  0  0  0  0  0  0  0  0999 V2000
    4.7638    0.7687   -3.2304 F   0  0  0  0  0  0  0  0  0  0  0  0
    3.6446    0.5614   -2.5142 C   0  0  0  0  0  0  0  0  0  0  0  0
    2.7476   -0.3991   -2.9399 C   0  0  0  0  0  0  0  0  0  0  0  0
    1.5940   -0.6063   -2.1932 C   0  0  0  0  0  0  0  0  0  0  0  0
    1.3447    0.1293   -1.0281 C   0  0  0  0  0  0  0  0  0  0  0  0
    0.1292   -0.1003   -0.2321 C   0  0  0  0  0  0  0  0  0  0  0  0
   -0.1588    0.6024    0.8242 N   0  0  0  0  0  0  0  0  0  0  0  0
   -1.3521    0.1776    1.3746 C   0  0  0  0  0  0  0  0  0  0  0  0
   -1.9615    0.7311    2.5265 C   0  0  0  0  0  0  0  0  0  0  0  0
   -3.1576    0.1963    2.9650 C   0  0  0  0  0  0  0  0  0  0  0  0
   -3.7740   -0.8762    2.2822 C   0  0  0  0  0  0  0  0  0  0  0  0
   -3.1807   -1.4234    1.1489 C   0  0  0  0  0  0  0  0  0  0  0  0
   -1.9682   -0.8946    0.6977 C   0  0  0  0  0  0  0  0  0  0  0  0
   -1.0128   -1.3427   -0.6584 S   0  0  0  0  0  0  0  0  0  0  0  0
    2.2849    1.0996   -0.6262 C   0  0  0  0  0  0  0  0  0  0  0  0
    3.4323    1.3205   -1.3707 C   0  0  0  0  0  0  0  0  0  0  0  0
    2.9399   -0.9755   -3.8365 H   0  0  0  0  0  0  0  0  0  0  0  0
    0.8861   -1.3602   -2.5342 H   0  0  0  0  0  0  0  0  0  0  0  0
   -1.4814    1.5542    3.0387 H   0  0  0  0  0  0  0  0  0  0  0  0
   -3.6317    0.6080    3.8412 H   0  0  0  0  0  0  0  0  0  0  0  0
   -4.7097   -1.2722    2.6465 H   0  0  0  0  0  0  0  0  0  0  0  0
   -3.6422   -2.2465    0.6159 H   0  0  0  0  0  0  0  0  0  0  0  0
    2.1068    1.6790    0.2709 H   0  0  0  0  0  0  0  0  0  0  0  0
    4.1568    2.0690   -1.0683 H   0  0  0  0  0  0  0  0  0  0  0  0
  1  2  1  0
  2  3  1  0
  3  4  2  0
  4  5  1  0
  5  6  1  0
  6  7  2  0
  7  8  1  0
  8  9  2  0
  9 10  1  0
 10 11  2  0
 11 12  1  0
 12 13  2  0
 13 14  1  0
  5 15  2  0
 15 16  1  0
 16  2  2  0
 14  6  1  0
 13  8  1  0
  3 17  1  0
  4 18  1  0
  9 19  1  0
 10 20  1  0
 11 21  1  0
 12 22  1  0
 15 23  1  0
 16 24  1  0
M  END
$$$$

     RDKit          3D

 24 26  0  0  0  0  0  0  0  0999 V2000
    1.3014    3.2400    4.6402 F   0  0  0  0  0  0  0  0  0  0  0  0
    1.0357    2.4610    3.5757 C   0  0  0  0  0  0  0  0  0  0  0  0
    1.7931    1.3225    3.3760 C   0  0  0  0  0  0  0  0  0  0  0  0
    1.5109    0.5231    2.2745 C   0  0  0  0  0  0  0  0  0  0  0  0
    0.4800    0.8540    1.3861 C   0  0  0  0  0  0  0  0  0  0  0  0
    0.1772    0.0013    0.2262 C   0  0  0  0  0  0  0  0  0  0  0  0
   -0.7573    0.2953   -0.6292 N   0  0  0  0  0  0  0  0  0  0  0  0
   -0.8237   -0.6641   -1.6189 C   0  0  0  0  0  0  0  0  0  0  0  0
   -1.7286   -0.6484   -2.7063 C   0  0  0  0  0  0  0  0  0  0  0  0
   -1.6784   -1.6791   -3.6258 C   0  0  0  0  0  0  0  0  0  0  0  0
   -0.7496   -2.7346   -3.4901 C   0  0  0  0  0  0  0  0  0  0  0  0
    0.1412   -2.7566   -2.4215 C   0  0  0  0  0  0  0  0  0  0  0  0
    0.0989   -1.7212   -1.4841 C   0  0  0  0  0  0  0  0  0  0  0  0
    1.0578   -1.4701   -0.0811 S   0  0  0  0  0  0  0  0  0  0  0  0
   -0.2697    2.0248    1.6242 C   0  0  0  0  0  0  0  0  0  0  0  0
    0.0101    2.8313    2.7158 C   0  0  0  0  0  0  0  0  0  0  0  0
    2.5881    1.0614    4.0631 H   0  0  0  0  0  0  0  0  0  0  0  0
    2.1094   -0.3746    2.1164 H   0  0  0  0  0  0  0  0  0  0  0  0
   -2.4375    0.1630   -2.7962 H   0  0  0  0  0  0  0  0  0  0  0  0
   -2.3564   -1.6754   -4.4627 H   0  0  0  0  0  0  0  0  0  0  0  0
   -0.7342   -3.5284   -4.2211 H   0  0  0  0  0  0  0  0  0  0  0  0
    0.8624   -3.5579   -2.3097 H   0  0  0  0  0  0  0  0  0  0  0  0
   -1.0683    2.2999    0.9445 H   0  0  0  0  0  0  0  0  0  0  0  0
   -0.5625    3.7329    2.9041 H   0  0  0  0  0  0  0  0  0  0  0  0
  1  2  1  0
  2  3  1  0
  3  4  2  0
  4  5  1  0
  5  6  1  0
  6  7  2  0
  7  8  1  0
  8  9  2  0
  9 10  1  0
 10 11  2  0
 11 12  1  0
 12 13  2  0
 13 14  1  0
  5 15  2  0
 15 16  1  0
 16  2  2  0
 14  6  1  0
 13  8  1  0
  3 17  1  0
  4 18  1  0
  9 19  1  0
 10 20  1  0
 11 21  1  0
 12 22  1  0
 15 23  1  0
 16 24  1  0
M  END
$$$$

     RDKit          3D

 24 26  0  0  0  0  0  0  0  0999 V2000
    2.5084   -4.4114   -2.8206 F   0  0  0  0  0  0  0  0  0  0  0  0
    1.9016   -3.3787   -2.2094 C   0  0  0  0  0  0  0  0  0  0  0  0
    1.1156   -2.5264   -2.9621 C   0  0  0  0  0  0  0  0  0  0  0  0
    0.4973   -1.4562   -2.3271 C   0  0  0  0  0  0  0  0  0  0  0  0
    0.6551   -1.2444   -0.9527 C   0  0  0  0  0  0  0  0  0  0  0  0
    0.0039   -0.1107   -0.2776 C   0  0  0  0  0  0  0  0  0  0  0  0
    0.1690    0.1234    0.9917 N   0  0  0  0  0  0  0  0  0  0  0  0
   -0.5420    1.2404    1.3759 C   0  0  0  0  0  0  0  0  0  0  0  0
   -0.5796    1.7704    2.6877 C   0  0  0  0  0  0  0  0  0  0  0  0
   -1.3465    2.8937    2.9292 C   0  0  0  0  0  0  0  0  0  0  0  0
   -2.0769    3.5138    1.8928 C   0  0  0  0  0  0  0  0  0  0  0  0
   -2.0417    2.9982    0.6006 C   0  0  0  0  0  0  0  0  0  0  0  0
   -1.2754    1.8578    0.3441 C   0  0  0  0  0  0  0  0  0  0  0  0
   -1.0309    1.0010   -1.1267 S   0  0  0  0  0  0  0  0  0  0  0  0
    1.4581   -2.1424   -0.2173 C   0  0  0  0  0  0  0  0  0  0  0  0
    2.0846   -3.2063   -0.8437 C   0  0  0  0  0  0  0  0  0  0  0  0
    0.9915   -2.6875   -4.0256 H   0  0  0  0  0  0  0  0  0  0  0  0
   -0.1194   -0.7845   -2.9266 H   0  0  0  0  0  0  0  0  0  0  0  0
   -0.0141    1.2870    3.4718 H   0  0  0  0  0  0  0  0  0  0  0  0
   -1.3856    3.3038    3.9254 H   0  0  0  0  0  0  0  0  0  0  0  0
   -2.6657    4.3924    2.1082 H   0  0  0  0  0  0  0  0  0  0  0  0
   -2.5967    3.4648   -0.2038 H   0  0  0  0  0  0  0  0  0  0  0  0
    1.5858   -1.9988    0.8485 H   0  0  0  0  0  0  0  0  0  0  0  0
    2.7035   -3.8993   -0.2827 H   0  0  0  0  0  0  0  0  0  0  0  0
  1  2  1  0
  2  3  1  0
  3  4  2  0
  4  5  1  0
  5  6  1  0
  6  7  2  0
  7  8  1  0
  8  9  2  0
  9 10  1  0
 10 11  2  0
 11 12  1  0
 12 13  2  0
 13 14  1  0
  5 15  2  0
 15 16  1  0
 16  2  2  0
 14  6  1  0
 13  8  1  0
  3 17  1  0
  4 18  1  0
  9 19  1  0
 10 20  1  0
 11 21  1  0
 12 22  1  0
 15 23  1  0
 16 24  1  0
M  END
$$$$

     RDKit          3D

 24 26  0  0  0  0  0  0  0  0999 V2000
    2.8588   -4.8880   -1.2878 F   0  0  0  0  0  0  0  0  0  0  0  0
    2.1921   -3.7484   -1.0361 C   0  0  0  0  0  0  0  0  0  0  0  0
    1.8467   -2.9283   -2.0926 C   0  0  0  0  0  0  0  0  0  0  0  0
    1.1626   -1.7490   -1.8204 C   0  0  0  0  0  0  0  0  0  0  0  0
    0.8248   -1.3939   -0.5085 C   0  0  0  0  0  0  0  0  0  0  0  0
    0.1041   -0.1407   -0.2242 C   0  0  0  0  0  0  0  0  0  0  0  0
   -0.2477    0.2033    0.9787 N   0  0  0  0  0  0  0  0  0  0  0  0
   -0.9053    1.4165    0.9620 C   0  0  0  0  0  0  0  0  0  0  0  0
   -1.4243    2.0790    2.0992 C   0  0  0  0  0  0  0  0  0  0  0  0
   -2.0636    3.2913    1.9265 C   0  0  0  0  0  0  0  0  0  0  0  0
   -2.1938    3.8733    0.6458 C   0  0  0  0  0  0  0  0  0  0  0  0
   -1.6856    3.2264   -0.4757 C   0  0  0  0  0  0  0  0  0  0  0  0
   -1.0453    1.9955   -0.3150 C   0  0  0  0  0  0  0  0  0  0  0  0
   -0.3227    0.9760   -1.4922 S   0  0  0  0  0  0  0  0  0  0  0  0
    1.1902   -2.2621    0.5415 C   0  0  0  0  0  0  0  0  0  0  0  0
    1.8768   -3.4363    0.2800 C   0  0  0  0  0  0  0  0  0  0  0  0
    2.1013   -3.2010   -3.1086 H   0  0  0  0  0  0  0  0  0  0  0  0
    0.8892   -1.1052   -2.6556 H   0  0  0  0  0  0  0  0  0  0  0  0
   -1.3162    1.6236    3.0740 H   0  0  0  0  0  0  0  0  0  0  0  0
   -2.4666    3.8034    2.7842 H   0  0  0  0  0  0  0  0  0  0  0  0
   -2.6922    4.8232    0.5423 H   0  0  0  0  0  0  0  0  0  0  0  0
   -1.7754    3.6611   -1.4640 H   0  0  0  0  0  0  0  0  0  0  0  0
    0.9351   -2.0108    1.5638 H   0  0  0  0  0  0  0  0  0  0  0  0
    2.1568   -4.1088    1.0826 H   0  0  0  0  0  0  0  0  0  0  0  0
  1  2  1  0
  2  3  1  0
  3  4  2  0
  4  5  1  0
  5  6  1  0
  6  7  2  0
  7  8  1  0
  8  9  2  0
  9 10  1  0
 10 11  2  0
 11 12  1  0
 12 13  2  0
 13 14  1  0
  5 15  2  0
 15 16  1  0
 16  2  2  0
 14  6  1  0
 13  8  1  0
  3 17  1  0
  4 18  1  0
  9 19  1  0
 10 20  1  0
 11 21  1  0
 12 22  1  0
 15 23  1  0
 16 24  1  0
M  END
$$$$

     RDKit          3D

 24 26  0  0  0  0  0  0  0  0999 V2000
    2.3273    4.8405   -2.2094 F   0  0  0  0  0  0  0  0  0  0  0  0
    1.7510    3.7428   -1.6846 C   0  0  0  0  0  0  0  0  0  0  0  0
    0.4983    3.8560   -1.1115 C   0  0  0  0  0  0  0  0  0  0  0  0
   -0.0895    2.7189   -0.5692 C   0  0  0  0  0  0  0  0  0  0  0  0
    0.5641    1.4808   -0.6029 C   0  0  0  0  0  0  0  0  0  0  0  0
   -0.0620    0.2783   -0.0299 C   0  0  0  0  0  0  0  0  0  0  0  0
    0.5185   -0.8850   -0.0566 N   0  0  0  0  0  0  0  0  0  0  0  0
   -0.2796   -1.8337    0.5493 C   0  0  0  0  0  0  0  0  0  0  0  0
    0.0505   -3.2016    0.6902 C   0  0  0  0  0  0  0  0  0  0  0  0
   -0.8560   -4.0410    1.3100 C   0  0  0  0  0  0  0  0  0  0  0  0
   -2.0866   -3.5511    1.8014 C   0  0  0  0  0  0  0  0  0  0  0  0
   -2.4146   -2.2058    1.6677 C   0  0  0  0  0  0  0  0  0  0  0  0
   -1.5097   -1.3493    1.0374 C   0  0  0  0  0  0  0  0  0  0  0  0
   -1.6304    0.3340    0.7262 S   0  0  0  0  0  0  0  0  0  0  0  0
    1.8409    1.4063   -1.1992 C   0  0  0  0  0  0  0  0  0  0  0  0
    2.4358    2.5361   -1.7386 C   0  0  0  0  0  0  0  0  0  0  0  0
   -0.0093    4.8127   -1.0824 H   0  0  0  0  0  0  0  0  0  0  0  0
   -1.0789    2.8101   -0.1202 H   0  0  0  0  0  0  0  0  0  0  0  0
    0.9992   -3.5614    0.3149 H   0  0  0  0  0  0  0  0  0  0  0  0
   -0.6197   -5.0861    1.4180 H   0  0  0  0  0  0  0  0  0  0  0  0
   -2.7762   -4.2288    2.2813 H   0  0  0  0  0  0  0  0  0  0  0  0
   -3.3542   -1.8162    2.0410 H   0  0  0  0  0  0  0  0  0  0  0  0
    2.3648    0.4597   -1.2325 H   0  0  0  0  0  0  0  0  0  0  0  0
    3.4164    2.4838   -2.2005 H   0  0  0  0  0  0  0  0  0  0  0  0
  1  2  1  0
  2  3  1  0
  3  4  2  0
  4  5  1  0
  5  6  1  0
  6  7  2  0
  7  8  1  0
  8  9  2  0
  9 10  1  0
 10 11  2  0
 11 12  1  0
 12 13  2  0
 13 14  1  0
  5 15  2  0
 15 16  1  0
 16  2  2  0
 14  6  1  0
 13  8  1  0
  3 17  1  0
  4 18  1  0
  9 19  1  0
 10 20  1  0
 11 21  1  0
 12 22  1  0
 15 23  1  0
 16 24  1  0
M  END
$$$$

     RDKit          3D

 24 26  0  0  0  0  0  0  0  0999 V2000
   -2.2547   -5.2220   -1.1587 F   0  0  0  0  0  0  0  0  0  0  0  0
   -1.7367   -4.0017   -0.9355 C   0  0  0  0  0  0  0  0  0  0  0  0
   -1.6285   -3.5497    0.3696 C   0  0  0  0  0  0  0  0  0  0  0  0
   -1.0863   -2.2889    0.5952 C   0  0  0  0  0  0  0  0  0  0  0  0
   -0.6565   -1.4903   -0.4814 C   0  0  0  0  0  0  0  0  0  0  0  0
   -0.0751   -0.1617   -0.2328 C   0  0  0  0  0  0  0  0  0  0  0  0
    0.0829    0.3087    0.9696 N   0  0  0  0  0  0  0  0  0  0  0  0
    0.6562    1.5637    0.9240 C   0  0  0  0  0  0  0  0  0  0  0  0
    0.9669    2.3589    2.0530 C   0  0  0  0  0  0  0  0  0  0  0  0
    1.5362    3.6022    1.8550 C   0  0  0  0  0  0  0  0  0  0  0  0
    1.8084    4.0811    0.5551 C   0  0  0  0  0  0  0  0  0  0  0  0
    1.5041    3.3050   -0.5583 C   0  0  0  0  0  0  0  0  0  0  0  0
    0.9263    2.0453   -0.3725 C   0  0  0  0  0  0  0  0  0  0  0  0
    0.4491    0.8712   -1.5335 S   0  0  0  0  0  0  0  0  0  0  0  0
   -0.7916   -1.9888   -1.7876 C   0  0  0  0  0  0  0  0  0  0  0  0
   -1.3319   -3.2399   -2.0199 C   0  0  0  0  0  0  0  0  0  0  0  0
   -1.9605   -4.1710    1.1953 H   0  0  0  0  0  0  0  0  0  0  0  0
   -0.9945   -1.9274    1.6097 H   0  0  0  0  0  0  0  0  0  0  0  0
    0.7551    1.9809    3.0444 H   0  0  0  0  0  0  0  0  0  0  0  0
    1.7776    4.2151    2.7075 H   0  0  0  0  0  0  0  0  0  0  0  0
    2.2508    5.0573    0.4292 H   0  0  0  0  0  0  0  0  0  0  0  0
    1.7104    3.6613   -1.5602 H   0  0  0  0  0  0  0  0  0  0  0  0
   -0.4733   -1.3852   -2.6385 H   0  0  0  0  0  0  0  0  0  0  0  0
   -1.4344   -3.6241   -3.0285 H   0  0  0  0  0  0  0  0  0  0  0  0
  1  2  1  0
  2  3  1  0
  3  4  2  0
  4  5  1  0
  5  6  1  0
  6  7  2  0
  7  8  1  0
  8  9  2  0
  9 10  1  0
 10 11  2  0
 11 12  1  0
 12 13  2  0
 13 14  1  0
  5 15  2  0
 15 16  1  0
 16  2  2  0
 14  6  1  0
 13  8  1  0
  3 17  1  0
  4 18  1  0
  9 19  1  0
 10 20  1  0
 11 21  1  0
 12 22  1  0
 15 23  1  0
 16 24  1  0
M  END
$$$$

     RDKit          3D

 24 26  0  0  0  0  0  0  0  0999 V2000
    3.6418    4.2185   -1.6325 F   0  0  0  0  0  0  0  0  0  0  0  0
    2.8291    3.2301   -1.2178 C   0  0  0  0  0  0  0  0  0  0  0  0
    3.1380    2.5588   -0.0491 C   0  0  0  0  0  0  0  0  0  0  0  0
    2.2946    1.5372    0.3719 C   0  0  0  0  0  0  0  0  0  0  0  0
    1.1508    1.1972   -0.3597 C   0  0  0  0  0  0  0  0  0  0  0  0
    0.2520    0.1243    0.0910 C   0  0  0  0  0  0  0  0  0  0  0  0
   -0.7885   -0.2452   -0.5980 N   0  0  0  0  0  0  0  0  0  0  0  0
   -1.4603   -1.2621    0.0478 C   0  0  0  0  0  0  0  0  0  0  0  0
   -2.6339   -1.8922   -0.4307 C   0  0  0  0  0  0  0  0  0  0  0  0
   -3.2083   -2.8951    0.3277 C   0  0  0  0  0  0  0  0  0  0  0  0
   -2.6444   -3.2887    1.5604 C   0  0  0  0  0  0  0  0  0  0  0  0
   -1.4911   -2.6711    2.0365 C   0  0  0  0  0  0  0  0  0  0  0  0
   -0.8981   -1.6567    1.2778 C   0  0  0  0  0  0  0  0  0  0  0  0
    0.5150   -0.7250    1.5873 S   0  0  0  0  0  0  0  0  0  0  0  0
    0.8691    1.9055   -1.5453 C   0  0  0  0  0  0  0  0  0  0  0  0
    1.7091    2.9188   -1.9774 C   0  0  0  0  0  0  0  0  0  0  0  0
    4.0199    2.8238    0.5205 H   0  0  0  0  0  0  0  0  0  0  0  0
    2.5381    1.0064    1.2926 H   0  0  0  0  0  0  0  0  0  0  0  0
   -3.0549   -1.5776   -1.3754 H   0  0  0  0  0  0  0  0  0  0  0  0
   -4.0995   -3.3846   -0.0295 H   0  0  0  0  0  0  0  0  0  0  0  0
   -3.1152   -4.0715    2.1359 H   0  0  0  0  0  0  0  0  0  0  0  0
   -1.0497   -2.9654    2.9822 H   0  0  0  0  0  0  0  0  0  0  0  0
   -0.0095    1.6502   -2.1253 H   0  0  0  0  0  0  0  0  0  0  0  0
    1.4959    3.4641   -2.8911 H   0  0  0  0  0  0  0  0  0  0  0  0
  1  2  1  0
  2  3  1  0
  3  4  2  0
  4  5  1  0
  5  6  1  0
  6  7  2  0
  7  8  1  0
  8  9  2  0
  9 10  1  0
 10 11  2  0
 11 12  1  0
 12 13  2  0
 13 14  1  0
  5 15  2  0
 15 16  1  0
 16  2  2  0
 14  6  1  0
 13  8  1  0
  3 17  1  0
  4 18  1  0
  9 19  1  0
 10 20  1  0
 11 21  1  0
 12 22  1  0
 15 23  1  0
 16 24  1  0
M  END
$$$$

     RDKit          3D

 24 26  0  0  0  0  0  0  0  0999 V2000
   -1.6690   -5.4887    0.8890 F   0  0  0  0  0  0  0  0  0  0  0  0
   -1.3033   -4.2190    0.6358 C   0  0  0  0  0  0  0  0  0  0  0  0
   -1.6547   -3.6516   -0.5741 C   0  0  0  0  0  0  0  0  0  0  0  0
   -1.2729   -2.3389   -0.8271 C   0  0  0  0  0  0  0  0  0  0  0  0
   -0.5512   -1.6009    0.1185 C   0  0  0  0  0  0  0  0  0  0  0  0
   -0.1464   -0.2120   -0.1461 C   0  0  0  0  0  0  0  0  0  0  0  0
    0.5067    0.4950    0.7292 N   0  0  0  0  0  0  0  0  0  0  0  0
    0.7655    1.7559    0.2334 C   0  0  0  0  0  0  0  0  0  0  0  0
    1.4593    2.7744    0.9288 C   0  0  0  0  0  0  0  0  0  0  0  0
    1.6411    3.9955    0.3093 C   0  0  0  0  0  0  0  0  0  0  0  0
    1.1529    4.2318   -0.9950 C   0  0  0  0  0  0  0  0  0  0  0  0
    0.4682    3.2344   -1.6834 C   0  0  0  0  0  0  0  0  0  0  0  0
    0.2740    1.9948   -1.0657 C   0  0  0  0  0  0  0  0  0  0  0  0
   -0.5132    0.5824   -1.6516 S   0  0  0  0  0  0  0  0  0  0  0  0
   -0.2139   -2.2147    1.3427 C   0  0  0  0  0  0  0  0  0  0  0  0
   -0.5884   -3.5223    1.6015 C   0  0  0  0  0  0  0  0  0  0  0  0
   -2.2083   -4.2212   -1.3103 H   0  0  0  0  0  0  0  0  0  0  0  0
   -1.5567   -1.8914   -1.7796 H   0  0  0  0  0  0  0  0  0  0  0  0
    1.8310    2.5798    1.9251 H   0  0  0  0  0  0  0  0  0  0  0  0
    2.1630    4.7807    0.8327 H   0  0  0  0  0  0  0  0  0  0  0  0
    1.3137    5.1952   -1.4555 H   0  0  0  0  0  0  0  0  0  0  0  0
    0.0901    3.4005   -2.6861 H   0  0  0  0  0  0  0  0  0  0  0  0
    0.3460   -1.6612    2.0859 H   0  0  0  0  0  0  0  0  0  0  0  0
   -0.3337   -3.9983    2.5426 H   0  0  0  0  0  0  0  0  0  0  0  0
  1  2  1  0
  2  3  1  0
  3  4  2  0
  4  5  1  0
  5  6  1  0
  6  7  2  0
  7  8  1  0
  8  9  2  0
  9 10  1  0
 10 11  2  0
 11 12  1  0
 12 13  2  0
 13 14  1  0
  5 15  2  0
 15 16  1  0
 16  2  2  0
 14  6  1  0
 13  8  1  0
  3 17  1  0
  4 18  1  0
  9 19  1  0
 10 20  1  0
 11 21  1  0
 12 22  1  0
 15 23  1  0
 16 24  1  0
M  END
$$$$

     RDKit          3D

 24 26  0  0  0  0  0  0  0  0999 V2000
    4.3221    3.3151   -2.0140 F   0  0  0  0  0  0  0  0  0  0  0  0
    3.3129    2.5340   -1.5900 C   0  0  0  0  0  0  0  0  0  0  0  0
    2.7106    1.6749   -2.4888 C   0  0  0  0  0  0  0  0  0  0  0  0
    1.6664    0.8733   -2.0435 C   0  0  0  0  0  0  0  0  0  0  0  0
    1.2326    0.9232   -0.7130 C   0  0  0  0  0  0  0  0  0  0  0  0
    0.1362    0.0611   -0.2437 C   0  0  0  0  0  0  0  0  0  0  0  0
   -0.2917    0.0853    0.9846 N   0  0  0  0  0  0  0  0  0  0  0  0
   -1.3167   -0.8224    1.1543 C   0  0  0  0  0  0  0  0  0  0  0  0
   -2.0007   -1.0576    2.3711 C   0  0  0  0  0  0  0  0  0  0  0  0
   -3.0063   -2.0045    2.3940 C   0  0  0  0  0  0  0  0  0  0  0  0
   -3.3572   -2.7254    1.2314 C   0  0  0  0  0  0  0  0  0  0  0  0
   -2.6907   -2.4960    0.0318 C   0  0  0  0  0  0  0  0  0  0  0  0
   -1.6651   -1.5485   -0.0025 C   0  0  0  0  0  0  0  0  0  0  0  0
   -0.6674   -1.0581   -1.3102 S   0  0  0  0  0  0  0  0  0  0  0  0
    1.8715    1.8147    0.1742 C   0  0  0  0  0  0  0  0  0  0  0  0
    2.9107    2.6205   -0.2630 C   0  0  0  0  0  0  0  0  0  0  0  0
    3.0438    1.6292   -3.5178 H   0  0  0  0  0  0  0  0  0  0  0  0
    1.1939    0.1961   -2.7560 H   0  0  0  0  0  0  0  0  0  0  0  0
   -1.7233   -0.4987    3.2534 H   0  0  0  0  0  0  0  0  0  0  0  0
   -3.5316   -2.1973    3.3160 H   0  0  0  0  0  0  0  0  0  0  0  0
   -4.1478   -3.4583    1.2794 H   0  0  0  0  0  0  0  0  0  0  0  0
   -2.9547   -3.0394   -0.8689 H   0  0  0  0  0  0  0  0  0  0  0  0
    1.5422    1.8750    1.2055 H   0  0  0  0  0  0  0  0  0  0  0  0
    3.4102    3.3038    0.4159 H   0  0  0  0  0  0  0  0  0  0  0  0
  1  2  1  0
  2  3  1  0
  3  4  2  0
  4  5  1  0
  5  6  1  0
  6  7  2  0
  7  8  1  0
  8  9  2  0
  9 10  1  0
 10 11  2  0
 11 12  1  0
 12 13  2  0
 13 14  1  0
  5 15  2  0
 15 16  1  0
 16  2  2  0
 14  6  1  0
 13  8  1  0
  3 17  1  0
  4 18  1  0
  9 19  1  0
 10 20  1  0
 11 21  1  0
 12 22  1  0
 15 23  1  0
 16 24  1  0
M  END
$$$$

     RDKit          3D

 24 26  0  0  0  0  0  0  0  0999 V2000
    3.7281   -1.9339    4.0094 F   0  0  0  0  0  0  0  0  0  0  0  0
    2.8916   -1.4513    3.0737 C   0  0  0  0  0  0  0  0  0  0  0  0
    1.7080   -2.1267    2.8225 C   0  0  0  0  0  0  0  0  0  0  0  0
    0.8455   -1.6242    1.8533 C   0  0  0  0  0  0  0  0  0  0  0  0
    1.1706   -0.4537    1.1413 C   0  0  0  0  0  0  0  0  0  0  0  0
    0.2549    0.0730    0.1161 C   0  0  0  0  0  0  0  0  0  0  0  0
   -0.8707   -0.5107   -0.1700 N   0  0  0  0  0  0  0  0  0  0  0  0
   -1.5342    0.1831   -1.1615 C   0  0  0  0  0  0  0  0  0  0  0  0
   -2.7890   -0.1773   -1.7062 C   0  0  0  0  0  0  0  0  0  0  0  0
   -3.3333    0.6126   -2.7009 C   0  0  0  0  0  0  0  0  0  0  0  0
   -2.6595    1.7606   -3.1716 C   0  0  0  0  0  0  0  0  0  0  0  0
   -1.4249    2.1192   -2.6399 C   0  0  0  0  0  0  0  0  0  0  0  0
   -0.8637    1.3284   -1.6339 C   0  0  0  0  0  0  0  0  0  0  0  0
    0.6178    1.5194   -0.7859 S   0  0  0  0  0  0  0  0  0  0  0  0
    2.3820    0.1957    1.4314 C   0  0  0  0  0  0  0  0  0  0  0  0
    3.2456   -0.2983    2.3921 C   0  0  0  0  0  0  0  0  0  0  0  0
    1.4654   -3.0313    3.3692 H   0  0  0  0  0  0  0  0  0  0  0  0
   -0.0853   -2.1391    1.6558 H   0  0  0  0  0  0  0  0  0  0  0  0
   -3.2946   -1.0593   -1.3380 H   0  0  0  0  0  0  0  0  0  0  0  0
   -4.2898    0.3484   -3.1219 H   0  0  0  0  0  0  0  0  0  0  0  0
   -3.1066    2.3584   -3.9496 H   0  0  0  0  0  0  0  0  0  0  0  0
   -0.8979    2.9983   -2.9904 H   0  0  0  0  0  0  0  0  0  0  0  0
    2.6606    1.1018    0.8912 H   0  0  0  0  0  0  0  0  0  0  0  0
    4.1795    0.2069    2.6139 H   0  0  0  0  0  0  0  0  0  0  0  0
  1  2  1  0
  2  3  1  0
  3  4  2  0
  4  5  1  0
  5  6  1  0
  6  7  2  0
  7  8  1  0
  8  9  2  0
  9 10  1  0
 10 11  2  0
 11 12  1  0
 12 13  2  0
 13 14  1  0
  5 15  2  0
 15 16  1  0
 16  2  2  0
 14  6  1  0
 13  8  1  0
  3 17  1  0
  4 18  1  0
  9 19  1  0
 10 20  1  0
 11 21  1  0
 12 22  1  0
 15 23  1  0
 16 24  1  0
M  END
$$$$

     RDKit          3D

 24 26  0  0  0  0  0  0  0  0999 V2000
    2.4513    4.8898    1.9523 F   0  0  0  0  0  0  0  0  0  0  0  0
    1.8642    3.7814    1.4657 C   0  0  0  0  0  0  0  0  0  0  0  0
    1.2352    3.8451    0.2372 C   0  0  0  0  0  0  0  0  0  0  0  0
    0.6327    2.6961   -0.2598 C   0  0  0  0  0  0  0  0  0  0  0  0
    0.6651    1.4934    0.4565 C   0  0  0  0  0  0  0  0  0  0  0  0
    0.0319    0.2761   -0.0762 C   0  0  0  0  0  0  0  0  0  0  0  0
    0.0812   -0.8628    0.5484 N   0  0  0  0  0  0  0  0  0  0  0  0
   -0.5910   -1.8337   -0.1665 C   0  0  0  0  0  0  0  0  0  0  0  0
   -0.7260   -3.1847    0.2294 C   0  0  0  0  0  0  0  0  0  0  0  0
   -1.4297   -4.0488   -0.5876 C   0  0  0  0  0  0  0  0  0  0  0  0
   -2.0080   -3.6028   -1.7958 C   0  0  0  0  0  0  0  0  0  0  0  0
   -1.8761   -2.2748   -2.1917 C   0  0  0  0  0  0  0  0  0  0  0  0
   -1.1621   -1.3917   -1.3769 C   0  0  0  0  0  0  0  0  0  0  0  0
   -0.8304    0.2797   -1.5901 S   0  0  0  0  0  0  0  0  0  0  0  0
    1.3195    1.4684    1.7057 C   0  0  0  0  0  0  0  0  0  0  0  0
    1.9131    2.6128    2.2140 C   0  0  0  0  0  0  0  0  0  0  0  0
    1.2118    4.7718   -0.3225 H   0  0  0  0  0  0  0  0  0  0  0  0
    0.1404    2.7478   -1.2302 H   0  0  0  0  0  0  0  0  0  0  0  0
   -0.2789   -3.5148    1.1573 H   0  0  0  0  0  0  0  0  0  0  0  0
   -1.5375   -5.0801   -0.2953 H   0  0  0  0  0  0  0  0  0  0  0  0
   -2.5556   -4.2985   -2.4122 H   0  0  0  0  0  0  0  0  0  0  0  0
   -2.3199   -1.9190   -3.1141 H   0  0  0  0  0  0  0  0  0  0  0  0
    1.3517    0.5492    2.2774 H   0  0  0  0  0  0  0  0  0  0  0  0
    2.4172    2.6001    3.1748 H   0  0  0  0  0  0  0  0  0  0  0  0
  1  2  1  0
  2  3  1  0
  3  4  2  0
  4  5  1  0
  5  6  1  0
  6  7  2  0
  7  8  1  0
  8  9  2  0
  9 10  1  0
 10 11  2  0
 11 12  1  0
 12 13  2  0
 13 14  1  0
  5 15  2  0
 15 16  1  0
 16  2  2  0
 14  6  1  0
 13  8  1  0
  3 17  1  0
  4 18  1  0
  9 19  1  0
 10 20  1  0
 11 21  1  0
 12 22  1  0
 15 23  1  0
 16 24  1  0
M  END
$$$$

     RDKit          3D

 24 26  0  0  0  0  0  0  0  0999 V2000
    4.2796   -3.6458   -1.4515 F   0  0  0  0  0  0  0  0  0  0  0  0
    3.3100   -2.7702   -1.1335 C   0  0  0  0  0  0  0  0  0  0  0  0
    2.3424   -3.1466   -0.2156 C   0  0  0  0  0  0  0  0  0  0  0  0
    1.3400   -2.2369    0.1074 C   0  0  0  0  0  0  0  0  0  0  0  0
    1.3143   -0.9580   -0.4812 C   0  0  0  0  0  0  0  0  0  0  0  0
    0.2505   -0.0008   -0.1380 C   0  0  0  0  0  0  0  0  0  0  0  0
   -0.7389   -0.3135    0.6436 N   0  0  0  0  0  0  0  0  0  0  0  0
   -1.5970    0.7590    0.7844 C   0  0  0  0  0  0  0  0  0  0  0  0
   -2.7798    0.7563    1.5609 C   0  0  0  0  0  0  0  0  0  0  0  0
   -3.5509    1.9021    1.5995 C   0  0  0  0  0  0  0  0  0  0  0  0
   -3.1710    3.0618    0.8890 C   0  0  0  0  0  0  0  0  0  0  0  0
   -2.0057    3.0721    0.1297 C   0  0  0  0  0  0  0  0  0  0  0  0
   -1.2216    1.9166    0.0737 C   0  0  0  0  0  0  0  0  0  0  0  0
    0.2470    1.6245   -0.7674 S   0  0  0  0  0  0  0  0  0  0  0  0
    2.3192   -0.6210   -1.4028 C   0  0  0  0  0  0  0  0  0  0  0  0
    3.3131   -1.5226   -1.7363 C   0  0  0  0  0  0  0  0  0  0  0  0
    2.3677   -4.1324    0.2351 H   0  0  0  0  0  0  0  0  0  0  0  0
    0.5785   -2.5222    0.8194 H   0  0  0  0  0  0  0  0  0  0  0  0
   -3.0561   -0.1378    2.1018 H   0  0  0  0  0  0  0  0  0  0  0  0
   -4.4561    1.9113    2.1842 H   0  0  0  0  0  0  0  0  0  0  0  0
   -3.7921    3.9426    0.9363 H   0  0  0  0  0  0  0  0  0  0  0  0
   -1.7003    3.9586   -0.4135 H   0  0  0  0  0  0  0  0  0  0  0  0
    2.3226    0.3627   -1.8747 H   0  0  0  0  0  0  0  0  0  0  0  0
    4.0845   -1.2594   -2.4505 H   0  0  0  0  0  0  0  0  0  0  0  0
  1  2  1  0
  2  3  1  0
  3  4  2  0
  4  5  1  0
  5  6  1  0
  6  7  2  0
  7  8  1  0
  8  9  2  0
  9 10  1  0
 10 11  2  0
 11 12  1  0
 12 13  2  0
 13 14  1  0
  5 15  2  0
 15 16  1  0
 16  2  2  0
 14  6  1  0
 13  8  1  0
  3 17  1  0
  4 18  1  0
  9 19  1  0
 10 20  1  0
 11 21  1  0
 12 22  1  0
 15 23  1  0
 16 24  1  0
M  END
$$$$
