
     RDKit          3D

 27 29  0  0  0  0  0  0  0  0999 V2000
    5.1557    0.0769    0.7126 C   0  0  0  0  0  0  0  0  0  0  0  0
    3.6746    0.0280    0.5238 C   0  0  0  0  0  0  0  0  0  0  0  0
    2.9415   -1.1188    0.8641 C   0  0  0  0  0  0  0  0  0  0  0  0
    1.5687   -1.1792    0.6878 C   0  0  0  0  0  0  0  0  0  0  0  0
    0.8756   -0.0882    0.1587 C   0  0  0  0  0  0  0  0  0  0  0  0
   -0.5568   -0.1540   -0.0221 C   0  0  0  0  0  0  0  0  0  0  0  0
   -1.3458   -1.1402    0.2717 N   0  0  0  0  0  0  0  0  0  0  0  0
   -2.6001   -0.6897   -0.0874 C   0  0  0  0  0  0  0  0  0  0  0  0
   -3.8753   -1.2959   -0.0117 C   0  0  0  0  0  0  0  0  0  0  0  0
   -4.9668   -0.5776   -0.4673 C   0  0  0  0  0  0  0  0  0  0  0  0
   -4.8197    0.7229   -0.9979 C   0  0  0  0  0  0  0  0  0  0  0  0
   -3.5715    1.3289   -1.0775 C   0  0  0  0  0  0  0  0  0  0  0  0
   -2.4941    0.5901   -0.6117 C   0  0  0  0  0  0  0  0  0  0  0  0
   -1.1799    0.9393   -0.5624 O   0  0  0  0  0  0  0  0  0  0  0  0
    1.5961    1.0623   -0.1865 C   0  0  0  0  0  0  0  0  0  0  0  0
    2.9606    1.1135   -0.0030 C   0  0  0  0  0  0  0  0  0  0  0  0
    5.4179   -0.1505    1.7476 H   0  0  0  0  0  0  0  0  0  0  0  0
    5.6425   -0.6715    0.0854 H   0  0  0  0  0  0  0  0  0  0  0  0
    5.5644    1.0571    0.4575 H   0  0  0  0  0  0  0  0  0  0  0  0
    3.4643   -1.9745    1.2738 H   0  0  0  0  0  0  0  0  0  0  0  0
    1.0296   -2.0754    0.9621 H   0  0  0  0  0  0  0  0  0  0  0  0
   -3.9813   -2.2940    0.3953 H   0  0  0  0  0  0  0  0  0  0  0  0
   -5.9466   -1.0167   -0.4179 H   0  0  0  0  0  0  0  0  0  0  0  0
   -5.6870    1.2554   -1.3466 H   0  0  0  0  0  0  0  0  0  0  0  0
   -3.4318    2.3281   -1.4818 H   0  0  0  0  0  0  0  0  0  0  0  0
    1.0715    1.9068   -0.5989 H   0  0  0  0  0  0  0  0  0  0  0  0
    3.4938    2.0168   -0.2678 H   0  0  0  0  0  0  0  0  0  0  0  0
  1  2  1  0
  2  3  1  0
  3  4  2  0
  4  5  1  0
  5  6  1  0
  6  7  2  0
  7  8  1  0
  8  9  2  0
  9 10  1  0
 10 11  2  0
 11 12  1  0
 12 13  2  0
 13 14  1  0
  5 15  2  0
 15 16  1  0
 16  2  2  0
 14  6  1  0
 13  8  1  0
  1 17  1  0
  1 18  1  0
  1 19  1  0
  3 20  1  0
  4 21  1  0
  9 22  1  0
 10 23  1  0
 11 24  1  0
 12 25  1  0
 15 26  1  0
 16 27  1  0
M  END
$$$$

     RDKit          3D

 27 29  0  0  0  0  0  0  0  0999 V2000
    4.7868    1.7578   -1.0465 C   0  0  0  0  0  0  0  0  0  0  0  0
    3.4142    1.2682   -0.7185 C   0  0  0  0  0  0  0  0  0  0  0  0
    2.9505    1.2463    0.6061 C   0  0  0  0  0  0  0  0  0  0  0  0
    1.6817    0.7880    0.9211 C   0  0  0  0  0  0  0  0  0  0  0  0
    0.8245    0.3320   -0.0836 C   0  0  0  0  0  0  0  0  0  0  0  0
   -0.4935   -0.1550    0.2578 C   0  0  0  0  0  0  0  0  0  0  0  0
   -1.0161   -0.2551    1.4411 N   0  0  0  0  0  0  0  0  0  0  0  0
   -2.2745   -0.7729    1.2112 C   0  0  0  0  0  0  0  0  0  0  0  0
   -3.3266   -1.1144    2.0928 C   0  0  0  0  0  0  0  0  0  0  0  0
   -4.4918   -1.6265    1.5496 C   0  0  0  0  0  0  0  0  0  0  0  0
   -4.6322   -1.8084    0.1568 C   0  0  0  0  0  0  0  0  0  0  0  0
   -3.6035   -1.4788   -0.7184 C   0  0  0  0  0  0  0  0  0  0  0  0
   -2.4471   -0.9682   -0.1510 C   0  0  0  0  0  0  0  0  0  0  0  0
   -1.3020   -0.5679   -0.7654 O   0  0  0  0  0  0  0  0  0  0  0  0
    1.2736    0.3562   -1.4114 C   0  0  0  0  0  0  0  0  0  0  0  0
    2.5390    0.8108   -1.7132 C   0  0  0  0  0  0  0  0  0  0  0  0
    4.9158    2.7885   -0.7165 H   0  0  0  0  0  0  0  0  0  0  0  0
    4.9882    1.7107   -2.1194 H   0  0  0  0  0  0  0  0  0  0  0  0
    5.5369    1.1574   -0.5296 H   0  0  0  0  0  0  0  0  0  0  0  0
    3.6019    1.5973    1.3977 H   0  0  0  0  0  0  0  0  0  0  0  0
    1.3476    0.7867    1.9509 H   0  0  0  0  0  0  0  0  0  0  0  0
   -3.2125   -0.9771    3.1603 H   0  0  0  0  0  0  0  0  0  0  0  0
   -5.3076   -1.8923    2.1994 H   0  0  0  0  0  0  0  0  0  0  0  0
   -5.5486   -2.2091   -0.2358 H   0  0  0  0  0  0  0  0  0  0  0  0
   -3.6917   -1.6073   -1.7938 H   0  0  0  0  0  0  0  0  0  0  0  0
    0.6234    0.0132   -2.1963 H   0  0  0  0  0  0  0  0  0  0  0  0
    2.8636    0.8197   -2.7455 H   0  0  0  0  0  0  0  0  0  0  0  0
  1  2  1  0
  2  3  1  0
  3  4  2  0
  4  5  1  0
  5  6  1  0
  6  7  2  0
  7  8  1  0
  8  9  2  0
  9 10  1  0
 10 11  2  0
 11 12  1  0
 12 13  2  0
 13 14  1  0
  5 15  2  0
 15 16  1  0
 16  2  2  0
 14  6  1  0
 13  8  1  0
  1 17  1  0
  1 18  1  0
  1 19  1  0
  3 20  1  0
  4 21  1  0
  9 22  1  0
 10 23  1  0
 11 24  1  0
 12 25  1  0
 15 26  1  0
 16 27  1  0
M  END
$$$$

     RDKit          3D

 27 29  0  0  0  0  0  0  0  0999 V2000
    4.0500    3.0997    1.0451 C   0  0  0  0  0  0  0  0  0  0  0  0
    2.9053    2.1943    0.7232 C   0  0  0  0  0  0  0  0  0  0  0  0
    2.6476    1.8018   -0.5990 C   0  0  0  0  0  0  0  0  0  0  0  0
    1.5771    0.9809   -0.9135 C   0  0  0  0  0  0  0  0  0  0  0  0
    0.7215    0.5188    0.0903 C   0  0  0  0  0  0  0  0  0  0  0  0
   -0.3939   -0.3350   -0.2502 C   0  0  0  0  0  0  0  0  0  0  0  0
   -0.7366   -0.7490   -1.4317 N   0  0  0  0  0  0  0  0  0  0  0  0
   -1.8581   -1.5215   -1.2090 C   0  0  0  0  0  0  0  0  0  0  0  0
   -2.6963   -2.2391   -2.0938 C   0  0  0  0  0  0  0  0  0  0  0  0
   -3.7674   -2.9307   -1.5575 C   0  0  0  0  0  0  0  0  0  0  0  0
   -4.0213   -2.9257   -0.1683 C   0  0  0  0  0  0  0  0  0  0  0  0
   -3.2068   -2.2213    0.7098 C   0  0  0  0  0  0  0  0  0  0  0  0
   -2.1424   -1.5313    0.1498 C   0  0  0  0  0  0  0  0  0  0  0  0
   -1.1994   -0.7689    0.7651 O   0  0  0  0  0  0  0  0  0  0  0  0
    0.9690    0.9012    1.4156 C   0  0  0  0  0  0  0  0  0  0  0  0
    2.0370    1.7186    1.7168 C   0  0  0  0  0  0  0  0  0  0  0  0
    3.8564    4.0998    0.6575 H   0  0  0  0  0  0  0  0  0  0  0  0
    4.9710    2.7440    0.5783 H   0  0  0  0  0  0  0  0  0  0  0  0
    4.2121    3.1776    2.1217 H   0  0  0  0  0  0  0  0  0  0  0  0
    3.3038    2.1514   -1.3867 H   0  0  0  0  0  0  0  0  0  0  0  0
    1.4024    0.6927   -1.9422 H   0  0  0  0  0  0  0  0  0  0  0  0
   -2.4968   -2.2388   -3.1583 H   0  0  0  0  0  0  0  0  0  0  0  0
   -4.4205   -3.4838   -2.2090 H   0  0  0  0  0  0  0  0  0  0  0  0
   -4.8606   -3.4753    0.2182 H   0  0  0  0  0  0  0  0  0  0  0  0
   -3.3838   -2.2088    1.7820 H   0  0  0  0  0  0  0  0  0  0  0  0
    0.3162    0.5512    2.1986 H   0  0  0  0  0  0  0  0  0  0  0  0
    2.2145    1.9974    2.7474 H   0  0  0  0  0  0  0  0  0  0  0  0
  1  2  1  0
  2  3  1  0
  3  4  2  0
  4  5  1  0
  5  6  1  0
  6  7  2  0
  7  8  1  0
  8  9  2  0
  9 10  1  0
 10 11  2  0
 11 12  1  0
 12 13  2  0
 13 14  1  0
  5 15  2  0
 15 16  1  0
 16  2  2  0
 14  6  1  0
 13  8  1  0
  1 17  1  0
  1 18  1  0
  1 19  1  0
  3 20  1  0
  4 21  1  0
  9 22  1  0
 10 23  1  0
 11 24  1  0
 12 25  1  0
 15 26  1  0
 16 27  1  0
M  END
$$$$

     RDKit          3D

 27 29  0  0  0  0  0  0  0  0999 V2000
   -3.9181   -2.4315    2.4193 C   0  0  0  0  0  0  0  0  0  0  0  0
   -2.7730   -1.7490    1.7435 C   0  0  0  0  0  0  0  0  0  0  0  0
   -1.5330   -1.6089    2.3811 C   0  0  0  0  0  0  0  0  0  0  0  0
   -0.4747   -0.9596    1.7663 C   0  0  0  0  0  0  0  0  0  0  0  0
   -0.6174   -0.4298    0.4804 C   0  0  0  0  0  0  0  0  0  0  0  0
    0.4995    0.2357   -0.1524 C   0  0  0  0  0  0  0  0  0  0  0  0
    1.6889    0.4088    0.3380 N   0  0  0  0  0  0  0  0  0  0  0  0
    2.3658    1.0921   -0.6500 C   0  0  0  0  0  0  0  0  0  0  0  0
    3.6941    1.5696   -0.7131 C   0  0  0  0  0  0  0  0  0  0  0  0
    4.0937    2.2321   -1.8588 C   0  0  0  0  0  0  0  0  0  0  0  0
    3.2044    2.4283   -2.9377 C   0  0  0  0  0  0  0  0  0  0  0  0
    1.8936    1.9670   -2.8847 C   0  0  0  0  0  0  0  0  0  0  0  0
    1.5157    1.3064   -1.7250 C   0  0  0  0  0  0  0  0  0  0  0  0
    0.3144    0.7511   -1.4055 O   0  0  0  0  0  0  0  0  0  0  0  0
   -1.8531   -0.5580   -0.1662 C   0  0  0  0  0  0  0  0  0  0  0  0
   -2.9000   -1.2015    0.4569 C   0  0  0  0  0  0  0  0  0  0  0  0
   -4.6241   -2.8358    1.6894 H   0  0  0  0  0  0  0  0  0  0  0  0
   -3.5726   -3.2475    3.0562 H   0  0  0  0  0  0  0  0  0  0  0  0
   -4.4544   -1.7218    3.0507 H   0  0  0  0  0  0  0  0  0  0  0  0
   -1.4016   -2.0190    3.3746 H   0  0  0  0  0  0  0  0  0  0  0  0
    0.4703   -0.8631    2.2823 H   0  0  0  0  0  0  0  0  0  0  0  0
    4.3672    1.4164    0.1202 H   0  0  0  0  0  0  0  0  0  0  0  0
    5.0997    2.6048   -1.9306 H   0  0  0  0  0  0  0  0  0  0  0  0
    3.5463    2.9457   -3.8154 H   0  0  0  0  0  0  0  0  0  0  0  0
    1.1951    2.1068   -3.7050 H   0  0  0  0  0  0  0  0  0  0  0  0
   -1.9784   -0.1487   -1.1562 H   0  0  0  0  0  0  0  0  0  0  0  0
   -3.8481   -1.2907   -0.0584 H   0  0  0  0  0  0  0  0  0  0  0  0
  1  2  1  0
  2  3  1  0
  3  4  2  0
  4  5  1  0
  5  6  1  0
  6  7  2  0
  7  8  1  0
  8  9  2  0
  9 10  1  0
 10 11  2  0
 11 12  1  0
 12 13  2  0
 13 14  1  0
  5 15  2  0
 15 16  1  0
 16  2  2  0
 14  6  1  0
 13  8  1  0
  1 17  1  0
  1 18  1  0
  1 19  1  0
  3 20  1  0
  4 21  1  0
  9 22  1  0
 10 23  1  0
 11 24  1  0
 12 25  1  0
 15 26  1  0
 16 27  1  0
M  END
$$$$

     RDKit          3D

 27 29  0  0  0  0  0  0  0  0999 V2000
   -4.8763   -0.4230   -1.7778 C   0  0  0  0  0  0  0  0  0  0  0  0
   -3.4720   -0.2796   -1.2875 C   0  0  0  0  0  0  0  0  0  0  0  0
   -2.4219    0.0049   -2.1739 C   0  0  0  0  0  0  0  0  0  0  0  0
   -1.1144    0.1227   -1.7329 C   0  0  0  0  0  0  0  0  0  0  0  0
   -0.8051   -0.0433   -0.3808 C   0  0  0  0  0  0  0  0  0  0  0  0
    0.5668    0.0802    0.0609 C   0  0  0  0  0  0  0  0  0  0  0  0
    1.6060    0.3627   -0.6643 N   0  0  0  0  0  0  0  0  0  0  0  0
    2.6543    0.3580    0.2310 C   0  0  0  0  0  0  0  0  0  0  0  0
    4.0388    0.5903    0.0575 C   0  0  0  0  0  0  0  0  0  0  0  0
    4.8571    0.5066    1.1694 C   0  0  0  0  0  0  0  0  0  0  0  0
    4.3301    0.2054    2.4444 C   0  0  0  0  0  0  0  0  0  0  0  0
    2.9715   -0.0254    2.6262 C   0  0  0  0  0  0  0  0  0  0  0  0
    2.1732    0.0581    1.4973 C   0  0  0  0  0  0  0  0  0  0  0  0
    0.8279   -0.1206    1.3872 O   0  0  0  0  0  0  0  0  0  0  0  0
   -1.8457   -0.3280    0.5148 C   0  0  0  0  0  0  0  0  0  0  0  0
   -3.1437   -0.4390    0.0662 C   0  0  0  0  0  0  0  0  0  0  0  0
   -5.1520    0.4248   -2.4088 H   0  0  0  0  0  0  0  0  0  0  0  0
   -4.9730   -1.3240   -2.3831 H   0  0  0  0  0  0  0  0  0  0  0  0
   -5.5863   -0.4883   -0.9499 H   0  0  0  0  0  0  0  0  0  0  0  0
   -2.6418    0.1345   -3.2258 H   0  0  0  0  0  0  0  0  0  0  0  0
   -0.3248    0.3431   -2.4387 H   0  0  0  0  0  0  0  0  0  0  0  0
    4.4345    0.8230   -0.9230 H   0  0  0  0  0  0  0  0  0  0  0  0
    5.9146    0.6751    1.0641 H   0  0  0  0  0  0  0  0  0  0  0  0
    4.9898    0.1503    3.2896 H   0  0  0  0  0  0  0  0  0  0  0  0
    2.5480   -0.2563    3.6001 H   0  0  0  0  0  0  0  0  0  0  0  0
   -1.6227   -0.4620    1.5606 H   0  0  0  0  0  0  0  0  0  0  0  0
   -3.9327   -0.6505    0.7774 H   0  0  0  0  0  0  0  0  0  0  0  0
  1  2  1  0
  2  3  1  0
  3  4  2  0
  4  5  1  0
  5  6  1  0
  6  7  2  0
  7  8  1  0
  8  9  2  0
  9 10  1  0
 10 11  2  0
 11 12  1  0
 12 13  2  0
 13 14  1  0
  5 15  2  0
 15 16  1  0
 16  2  2  0
 14  6  1  0
 13  8  1  0
  1 17  1  0
  1 18  1  0
  1 19  1  0
  3 20  1  0
  4 21  1  0
  9 22  1  0
 10 23  1  0
 11 24  1  0
 12 25  1  0
 15 26  1  0
 16 27  1  0
M  END
$$$$

     RDKit          3D

 27 29  0  0  0  0  0  0  0  0999 V2000
    0.4363   -2.1874    4.7026 C   0  0  0  0  0  0  0  0  0  0  0  0
    0.3310   -1.5207    3.3698 C   0  0  0  0  0  0  0  0  0  0  0  0
    0.8677   -0.2480    3.1319 C   0  0  0  0  0  0  0  0  0  0  0  0
    0.7589    0.3637    1.8922 C   0  0  0  0  0  0  0  0  0  0  0  0
    0.1119   -0.2858    0.8392 C   0  0  0  0  0  0  0  0  0  0  0  0
    0.0195    0.3552   -0.4525 C   0  0  0  0  0  0  0  0  0  0  0  0
    0.5276    1.4976   -0.8017 N   0  0  0  0  0  0  0  0  0  0  0  0
    0.1646    1.6387   -2.1250 C   0  0  0  0  0  0  0  0  0  0  0  0
    0.4172    2.6665   -3.0638 C   0  0  0  0  0  0  0  0  0  0  0  0
   -0.0973    2.5252   -4.3398 C   0  0  0  0  0  0  0  0  0  0  0  0
   -0.8457    1.3843   -4.7042 C   0  0  0  0  0  0  0  0  0  0  0  0
   -1.0956    0.3653   -3.7907 C   0  0  0  0  0  0  0  0  0  0  0  0
   -0.5784    0.5346   -2.5157 C   0  0  0  0  0  0  0  0  0  0  0  0
   -0.6687   -0.2943   -1.4401 O   0  0  0  0  0  0  0  0  0  0  0  0
   -0.4345   -1.5578    1.0654 C   0  0  0  0  0  0  0  0  0  0  0  0
   -0.3235   -2.1542    2.3006 C   0  0  0  0  0  0  0  0  0  0  0  0
    1.0298   -1.5985    5.4021 H   0  0  0  0  0  0  0  0  0  0  0  0
   -0.5574   -2.3330    5.1340 H   0  0  0  0  0  0  0  0  0  0  0  0
    0.8916   -3.1731    4.6059 H   0  0  0  0  0  0  0  0  0  0  0  0
    1.3814    0.2677    3.9314 H   0  0  0  0  0  0  0  0  0  0  0  0
    1.1815    1.3490    1.7347 H   0  0  0  0  0  0  0  0  0  0  0  0
    0.9937    3.5363   -2.7745 H   0  0  0  0  0  0  0  0  0  0  0  0
    0.0792    3.2951   -5.0694 H   0  0  0  0  0  0  0  0  0  0  0  0
   -1.2279    1.3003   -5.7055 H   0  0  0  0  0  0  0  0  0  0  0  0
   -1.6672   -0.5221   -4.0510 H   0  0  0  0  0  0  0  0  0  0  0  0
   -0.9451   -2.0662    0.2643 H   0  0  0  0  0  0  0  0  0  0  0  0
   -0.7507   -3.1384    2.4597 H   0  0  0  0  0  0  0  0  0  0  0  0
  1  2  1  0
  2  3  1  0
  3  4  2  0
  4  5  1  0
  5  6  1  0
  6  7  2  0
  7  8  1  0
  8  9  2  0
  9 10  1  0
 10 11  2  0
 11 12  1  0
 12 13  2  0
 13 14  1  0
  5 15  2  0
 15 16  1  0
 16  2  2  0
 14  6  1  0
 13  8  1  0
  1 17  1  0
  1 18  1  0
  1 19  1  0
  3 20  1  0
  4 21  1  0
  9 22  1  0
 10 23  1  0
 11 24  1  0
 12 25  1  0
 15 26  1  0
 16 27  1  0
M  END
$$$$

     RDKit          3D

 27 29  0  0  0  0  0  0  0  0999 V2000
   -2.9230   -4.2896    0.3992 C   0  0  0  0  0  0  0  0  0  0  0  0
   -2.1077   -3.0449    0.2624 C   0  0  0  0  0  0  0  0  0  0  0  0
   -2.3747   -2.1064   -0.7465 C   0  0  0  0  0  0  0  0  0  0  0  0
   -1.6149   -0.9566   -0.8850 C   0  0  0  0  0  0  0  0  0  0  0  0
   -0.5522   -0.7021   -0.0134 C   0  0  0  0  0  0  0  0  0  0  0  0
    0.2352    0.5012   -0.1625 C   0  0  0  0  0  0  0  0  0  0  0  0
    0.0680    1.4471   -1.0335 N   0  0  0  0  0  0  0  0  0  0  0  0
    1.0674    2.3544   -0.7439 C   0  0  0  0  0  0  0  0  0  0  0  0
    1.4165    3.5903   -1.3366 C   0  0  0  0  0  0  0  0  0  0  0  0
    2.4914    4.2849   -0.8100 C   0  0  0  0  0  0  0  0  0  0  0  0
    3.2221    3.7811    0.2882 C   0  0  0  0  0  0  0  0  0  0  0  0
    2.8918    2.5647    0.8742 C   0  0  0  0  0  0  0  0  0  0  0  0
    1.8142    1.8862    0.3267 C   0  0  0  0  0  0  0  0  0  0  0  0
    1.2796    0.6922    0.7019 O   0  0  0  0  0  0  0  0  0  0  0  0
   -0.2758   -1.6314    0.9976 C   0  0  0  0  0  0  0  0  0  0  0  0
   -1.0371   -2.7725    1.1252 C   0  0  0  0  0  0  0  0  0  0  0  0
   -3.9863   -4.0710    0.2803 H   0  0  0  0  0  0  0  0  0  0  0  0
   -2.7697   -4.7649    1.3707 H   0  0  0  0  0  0  0  0  0  0  0  0
   -2.6460   -5.0075   -0.3735 H   0  0  0  0  0  0  0  0  0  0  0  0
   -3.1960   -2.2874   -1.4286 H   0  0  0  0  0  0  0  0  0  0  0  0
   -1.8474   -0.2465   -1.6689 H   0  0  0  0  0  0  0  0  0  0  0  0
    0.8510    3.9708   -2.1786 H   0  0  0  0  0  0  0  0  0  0  0  0
    2.7749    5.2276   -1.2415 H   0  0  0  0  0  0  0  0  0  0  0  0
    4.0479    4.3458    0.6810 H   0  0  0  0  0  0  0  0  0  0  0  0
    3.4374    2.1588    1.7219 H   0  0  0  0  0  0  0  0  0  0  0  0
    0.5390   -1.4484    1.6782 H   0  0  0  0  0  0  0  0  0  0  0  0
   -0.8054   -3.4759    1.9152 H   0  0  0  0  0  0  0  0  0  0  0  0
  1  2  1  0
  2  3  1  0
  3  4  2  0
  4  5  1  0
  5  6  1  0
  6  7  2  0
  7  8  1  0
  8  9  2  0
  9 10  1  0
 10 11  2  0
 11 12  1  0
 12 13  2  0
 13 14  1  0
  5 15  2  0
 15 16  1  0
 16  2  2  0
 14  6  1  0
 13  8  1  0
  1 17  1  0
  1 18  1  0
  1 19  1  0
  3 20  1  0
  4 21  1  0
  9 22  1  0
 10 23  1  0
 11 24  1  0
 12 25  1  0
 15 26  1  0
 16 27  1  0
M  END
$$$$

     RDKit          3D

 27 29  0  0  0  0  0  0  0  0999 V2000
    1.0800    0.1803    5.0875 C   0  0  0  0  0  0  0  0  0  0  0  0
    0.7961    0.1489    3.6213 C   0  0  0  0  0  0  0  0  0  0  0  0
    1.1107    1.2440    2.8012 C   0  0  0  0  0  0  0  0  0  0  0  0
    0.8478    1.2278    1.4415 C   0  0  0  0  0  0  0  0  0  0  0  0
    0.2539    0.1090    0.8509 C   0  0  0  0  0  0  0  0  0  0  0  0
   -0.0278    0.1061   -0.5673 C   0  0  0  0  0  0  0  0  0  0  0  0
    0.2074    1.0532   -1.4221 N   0  0  0  0  0  0  0  0  0  0  0  0
   -0.2670    0.5568   -2.6188 C   0  0  0  0  0  0  0  0  0  0  0  0
   -0.3160    1.1170   -3.9177 C   0  0  0  0  0  0  0  0  0  0  0  0
   -0.8762    0.3611   -4.9312 C   0  0  0  0  0  0  0  0  0  0  0  0
   -1.3817   -0.9342   -4.6853 C   0  0  0  0  0  0  0  0  0  0  0  0
   -1.3399   -1.4938   -3.4134 C   0  0  0  0  0  0  0  0  0  0  0  0
   -0.7805   -0.7160   -2.4132 C   0  0  0  0  0  0  0  0  0  0  0  0
   -0.6206   -1.0079   -1.0933 O   0  0  0  0  0  0  0  0  0  0  0  0
   -0.0621   -0.9919    1.6589 C   0  0  0  0  0  0  0  0  0  0  0  0
    0.2028   -0.9641    3.0107 C   0  0  0  0  0  0  0  0  0  0  0  0
    2.1490    0.2989    5.2672 H   0  0  0  0  0  0  0  0  0  0  0  0
    0.5767    1.0271    5.5519 H   0  0  0  0  0  0  0  0  0  0  0  0
    0.7452   -0.7349    5.5848 H   0  0  0  0  0  0  0  0  0  0  0  0
    1.5635    2.1212    3.2475 H   0  0  0  0  0  0  0  0  0  0  0  0
    1.1006    2.0854    0.8319 H   0  0  0  0  0  0  0  0  0  0  0  0
    0.0746    2.1101   -4.1014 H   0  0  0  0  0  0  0  0  0  0  0  0
   -0.9303    0.7654   -5.9269 H   0  0  0  0  0  0  0  0  0  0  0  0
   -1.8096   -1.4969   -5.4933 H   0  0  0  0  0  0  0  0  0  0  0  0
   -1.7212   -2.4896   -3.2057 H   0  0  0  0  0  0  0  0  0  0  0  0
   -0.5205   -1.8605    1.2166 H   0  0  0  0  0  0  0  0  0  0  0  0
   -0.0548   -1.8226    3.6175 H   0  0  0  0  0  0  0  0  0  0  0  0
  1  2  1  0
  2  3  1  0
  3  4  2  0
  4  5  1  0
  5  6  1  0
  6  7  2  0
  7  8  1  0
  8  9  2  0
  9 10  1  0
 10 11  2  0
 11 12  1  0
 12 13  2  0
 13 14  1  0
  5 15  2  0
 15 16  1  0
 16  2  2  0
 14  6  1  0
 13  8  1  0
  1 17  1  0
  1 18  1  0
  1 19  1  0
  3 20  1  0
  4 21  1  0
  9 22  1  0
 10 23  1  0
 11 24  1  0
 12 25  1  0
 15 26  1  0
 16 27  1  0
M  END
$$$$

     RDKit          3D

 27 29  0  0  0  0  0  0  0  0999 V2000
   -0.5415   -3.2140    4.0578 C   0  0  0  0  0  0  0  0  0  0  0  0
   -0.4297   -2.2860    2.8926 C   0  0  0  0  0  0  0  0  0  0  0  0
    0.6824   -2.3296    2.0409 C   0  0  0  0  0  0  0  0  0  0  0  0
    0.8077   -1.4652    0.9693 C   0  0  0  0  0  0  0  0  0  0  0  0
   -0.1890   -0.5144    0.7051 C   0  0  0  0  0  0  0  0  0  0  0  0
   -0.0818    0.4038   -0.4069 C   0  0  0  0  0  0  0  0  0  0  0  0
   -0.9408    1.3066   -0.7766 N   0  0  0  0  0  0  0  0  0  0  0  0
   -0.3554    1.8984   -1.8760 C   0  0  0  0  0  0  0  0  0  0  0  0
   -0.7920    2.9450   -2.7211 C   0  0  0  0  0  0  0  0  0  0  0  0
    0.0335    3.3239   -3.7632 C   0  0  0  0  0  0  0  0  0  0  0  0
    1.2778    2.6912   -3.9815 C   0  0  0  0  0  0  0  0  0  0  0  0
    1.7144    1.6584   -3.1584 C   0  0  0  0  0  0  0  0  0  0  0  0
    0.8687    1.2939   -2.1233 C   0  0  0  0  0  0  0  0  0  0  0  0
    1.0454    0.3328   -1.1764 O   0  0  0  0  0  0  0  0  0  0  0  0
   -1.3044   -0.4639    1.5443 C   0  0  0  0  0  0  0  0  0  0  0  0
   -1.4186   -1.3307    2.6108 C   0  0  0  0  0  0  0  0  0  0  0  0
   -1.5071   -3.1142    4.5572 H   0  0  0  0  0  0  0  0  0  0  0  0
    0.2461   -3.0043    4.7834 H   0  0  0  0  0  0  0  0  0  0  0  0
   -0.4202   -4.2509    3.7381 H   0  0  0  0  0  0  0  0  0  0  0  0
    1.4617   -3.0594    2.2292 H   0  0  0  0  0  0  0  0  0  0  0  0
    1.6739   -1.5236    0.3346 H   0  0  0  0  0  0  0  0  0  0  0  0
   -1.7491    3.4228   -2.5495 H   0  0  0  0  0  0  0  0  0  0  0  0
   -0.2767    4.1164   -4.4206 H   0  0  0  0  0  0  0  0  0  0  0  0
    1.8986    3.0136   -4.7971 H   0  0  0  0  0  0  0  0  0  0  0  0
    2.6662    1.1549   -3.3083 H   0  0  0  0  0  0  0  0  0  0  0  0
   -2.0795    0.2676    1.3474 H   0  0  0  0  0  0  0  0  0  0  0  0
   -2.2906   -1.2731    3.2482 H   0  0  0  0  0  0  0  0  0  0  0  0
  1  2  1  0
  2  3  1  0
  3  4  2  0
  4  5  1  0
  5  6  1  0
  6  7  2  0
  7  8  1  0
  8  9  2  0
  9 10  1  0
 10 11  2  0
 11 12  1  0
 12 13  2  0
 13 14  1  0
  5 15  2  0
 15 16  1  0
 16  2  2  0
 14  6  1  0
 13  8  1  0
  1 17  1  0
  1 18  1  0
  1 19  1  0
  3 20  1  0
  4 21  1  0
  9 22  1  0
 10 23  1  0
 11 24  1  0
 12 25  1  0
 15 26  1  0
 16 27  1  0
M  END
$$$$

     RDKit          3D

 27 29  0  0  0  0  0  0  0  0999 V2000
   -3.6804   -1.9097   -3.1476 C   0  0  0  0  0  0  0  0  0  0  0  0
   -2.6524   -1.3588   -2.2146 C   0  0  0  0  0  0  0  0  0  0  0  0
   -2.9829   -0.3749   -1.2715 C   0  0  0  0  0  0  0  0  0  0  0  0
   -2.0326    0.1523   -0.4131 C   0  0  0  0  0  0  0  0  0  0  0  0
   -0.7073   -0.2863   -0.4676 C   0  0  0  0  0  0  0  0  0  0  0  0
    0.2819    0.2758    0.4258 C   0  0  0  0  0  0  0  0  0  0  0  0
    0.0994    1.1679    1.3500 N   0  0  0  0  0  0  0  0  0  0  0  0
    1.3556    1.3585    1.8899 C   0  0  0  0  0  0  0  0  0  0  0  0
    1.8173    2.2041    2.9254 C   0  0  0  0  0  0  0  0  0  0  0  0
    3.1646    2.1779    3.2384 C   0  0  0  0  0  0  0  0  0  0  0  0
    4.0591    1.3333    2.5473 C   0  0  0  0  0  0  0  0  0  0  0  0
    3.6173    0.5006    1.5258 C   0  0  0  0  0  0  0  0  0  0  0  0
    2.2635    0.5448    1.2308 C   0  0  0  0  0  0  0  0  0  0  0  0
    1.5724   -0.1590    0.2929 O   0  0  0  0  0  0  0  0  0  0  0  0
   -0.3645   -1.2714   -1.4042 C   0  0  0  0  0  0  0  0  0  0  0  0
   -1.3175   -1.7887   -2.2536 C   0  0  0  0  0  0  0  0  0  0  0  0
   -3.8741   -1.2018   -3.9546 H   0  0  0  0  0  0  0  0  0  0  0  0
   -4.6259   -2.0827   -2.6299 H   0  0  0  0  0  0  0  0  0  0  0  0
   -3.3508   -2.8492   -3.5948 H   0  0  0  0  0  0  0  0  0  0  0  0
   -4.0049   -0.0199   -1.2170 H   0  0  0  0  0  0  0  0  0  0  0  0
   -2.3165    0.9075    0.3085 H   0  0  0  0  0  0  0  0  0  0  0  0
    1.1268    2.8519    3.4493 H   0  0  0  0  0  0  0  0  0  0  0  0
    3.5392    2.8160    4.0183 H   0  0  0  0  0  0  0  0  0  0  0  0
    5.1002    1.3348    2.8130 H   0  0  0  0  0  0  0  0  0  0  0  0
    4.2882   -0.1527    0.9763 H   0  0  0  0  0  0  0  0  0  0  0  0
    0.6535   -1.6225   -1.4528 H   0  0  0  0  0  0  0  0  0  0  0  0
   -1.0293   -2.5472   -2.9703 H   0  0  0  0  0  0  0  0  0  0  0  0
  1  2  1  0
  2  3  1  0
  3  4  2  0
  4  5  1  0
  5  6  1  0
  6  7  2  0
  7  8  1  0
  8  9  2  0
  9 10  1  0
 10 11  2  0
 11 12  1  0
 12 13  2  0
 13 14  1  0
  5 15  2  0
 15 16  1  0
 16  2  2  0
 14  6  1  0
 13  8  1  0
  1 17  1  0
  1 18  1  0
  1 19  1  0
  3 20  1  0
  4 21  1  0
  9 22  1  0
 10 23  1  0
 11 24  1  0
 12 25  1  0
 15 26  1  0
 16 27  1  0
M  END
$$$$

     RDKit          3D

 27 29  0  0  0  0  0  0  0  0999 V2000
    3.9819   -2.7743   -1.8847 C   0  0  0  0  0  0  0  0  0  0  0  0
    2.8508   -1.9493   -1.3605 C   0  0  0  0  0  0  0  0  0  0  0  0
    2.9778   -0.5608   -1.2025 C   0  0  0  0  0  0  0  0  0  0  0  0
    1.9447    0.2079   -0.6924 C   0  0  0  0  0  0  0  0  0  0  0  0
    0.7369   -0.3876   -0.3234 C   0  0  0  0  0  0  0  0  0  0  0  0
   -0.3375    0.4234    0.2016 C   0  0  0  0  0  0  0  0  0  0  0  0
   -0.3412    1.7069    0.3880 N   0  0  0  0  0  0  0  0  0  0  0  0
   -1.5997    1.9739    0.8889 C   0  0  0  0  0  0  0  0  0  0  0  0
   -2.2184    3.1823    1.2864 C   0  0  0  0  0  0  0  0  0  0  0  0
   -3.5194    3.1246    1.7512 C   0  0  0  0  0  0  0  0  0  0  0  0
   -4.2155    1.8980    1.8334 C   0  0  0  0  0  0  0  0  0  0  0  0
   -3.6145    0.7038    1.4508 C   0  0  0  0  0  0  0  0  0  0  0  0
   -2.3114    0.7875    0.9879 C   0  0  0  0  0  0  0  0  0  0  0  0
   -1.4995   -0.2118    0.5448 O   0  0  0  0  0  0  0  0  0  0  0  0
    0.5962   -1.7742   -0.4759 C   0  0  0  0  0  0  0  0  0  0  0  0
    1.6296   -2.5296   -0.9840 C   0  0  0  0  0  0  0  0  0  0  0  0
    4.5492   -2.2259   -2.6411 H   0  0  0  0  0  0  0  0  0  0  0  0
    3.6244   -3.7082   -2.3226 H   0  0  0  0  0  0  0  0  0  0  0  0
    4.6676   -3.0233   -1.0737 H   0  0  0  0  0  0  0  0  0  0  0  0
    3.9070   -0.0810   -1.4846 H   0  0  0  0  0  0  0  0  0  0  0  0
    2.0707    1.2774   -0.5807 H   0  0  0  0  0  0  0  0  0  0  0  0
   -1.6777    4.1192    1.2269 H   0  0  0  0  0  0  0  0  0  0  0  0
   -4.0145    4.0314    2.0542 H   0  0  0  0  0  0  0  0  0  0  0  0
   -5.2262    1.8872    2.1970 H   0  0  0  0  0  0  0  0  0  0  0  0
   -4.1291   -0.2533    1.5000 H   0  0  0  0  0  0  0  0  0  0  0  0
   -0.3285   -2.2449   -0.1879 H   0  0  0  0  0  0  0  0  0  0  0  0
    1.4961   -3.5990   -1.0969 H   0  0  0  0  0  0  0  0  0  0  0  0
  1  2  1  0
  2  3  1  0
  3  4  2  0
  4  5  1  0
  5  6  1  0
  6  7  2  0
  7  8  1  0
  8  9  2  0
  9 10  1  0
 10 11  2  0
 11 12  1  0
 12 13  2  0
 13 14  1  0
  5 15  2  0
 15 16  1  0
 16  2  2  0
 14  6  1  0
 13  8  1  0
  1 17  1  0
  1 18  1  0
  1 19  1  0
  3 20  1  0
  4 21  1  0
  9 22  1  0
 10 23  1  0
 11 24  1  0
 12 25  1  0
 15 26  1  0
 16 27  1  0
M  END
$$$$

     RDKit          3D

 27 29  0  0  0  0  0  0  0  0999 V2000
    4.7328   -1.9850    0.8746 C   0  0  0  0  0  0  0  0  0  0  0  0
    3.3697   -1.4077    0.6708 C   0  0  0  0  0  0  0  0  0  0  0  0
    2.4926   -1.1812    1.7402 C   0  0  0  0  0  0  0  0  0  0  0  0
    1.2253   -0.6551    1.5398 C   0  0  0  0  0  0  0  0  0  0  0  0
    0.7913   -0.3305    0.2542 C   0  0  0  0  0  0  0  0  0  0  0  0
   -0.5301    0.2225    0.0574 C   0  0  0  0  0  0  0  0  0  0  0  0
   -1.4255    0.4731    0.9637 N   0  0  0  0  0  0  0  0  0  0  0  0
   -2.4964    0.9746    0.2541 C   0  0  0  0  0  0  0  0  0  0  0  0
   -3.7725    1.4229    0.6684 C   0  0  0  0  0  0  0  0  0  0  0  0
   -4.6529    1.8676   -0.3003 C   0  0  0  0  0  0  0  0  0  0  0  0
   -4.2943    1.8807   -1.6659 C   0  0  0  0  0  0  0  0  0  0  0  0
   -3.0419    1.4429   -2.0842 C   0  0  0  0  0  0  0  0  0  0  0  0
   -2.1784    0.9986   -1.0955 C   0  0  0  0  0  0  0  0  0  0  0  0
   -0.9087    0.5218   -1.2214 O   0  0  0  0  0  0  0  0  0  0  0  0
    1.6574   -0.5572   -0.8253 C   0  0  0  0  0  0  0  0  0  0  0  0
    2.9116   -1.0841   -0.6157 C   0  0  0  0  0  0  0  0  0  0  0  0
    5.0180   -1.9726    1.9282 H   0  0  0  0  0  0  0  0  0  0  0  0
    5.4810   -1.4271    0.3078 H   0  0  0  0  0  0  0  0  0  0  0  0
    4.7635   -3.0173    0.5214 H   0  0  0  0  0  0  0  0  0  0  0  0
    2.8113   -1.4202    2.7459 H   0  0  0  0  0  0  0  0  0  0  0  0
    0.5658   -0.4889    2.3825 H   0  0  0  0  0  0  0  0  0  0  0  0
   -4.0402    1.4101    1.7174 H   0  0  0  0  0  0  0  0  0  0  0  0
   -5.6303    2.2116   -0.0100 H   0  0  0  0  0  0  0  0  0  0  0  0
   -5.0007    2.2327   -2.3960 H   0  0  0  0  0  0  0  0  0  0  0  0
   -2.7467    1.4418   -3.1293 H   0  0  0  0  0  0  0  0  0  0  0  0
    1.3311   -0.3194   -1.8212 H   0  0  0  0  0  0  0  0  0  0  0  0
    3.5673   -1.2543   -1.4619 H   0  0  0  0  0  0  0  0  0  0  0  0
  1  2  1  0
  2  3  1  0
  3  4  2  0
  4  5  1  0
  5  6  1  0
  6  7  2  0
  7  8  1  0
  8  9  2  0
  9 10  1  0
 10 11  2  0
 11 12  1  0
 12 13  2  0
 13 14  1  0
  5 15  2  0
 15 16  1  0
 16  2  2  0
 14  6  1  0
 13  8  1  0
  1 17  1  0
  1 18  1  0
  1 19  1  0
  3 20  1  0
  4 21  1  0
  9 22  1  0
 10 23  1  0
 11 24  1  0
 12 25  1  0
 15 26  1  0
 16 27  1  0
M  END
$$$$
