
     RDKit          3D

 24 25  0  0  0  0  0  0  0  0999 V2000
   -2.7950    1.7886   -2.8675 C   0  0  0  0  0  0  0  0  0  0  0  0
   -1.8619    1.1638   -1.8858 C   0  0  0  0  0  0  0  0  0  0  0  0
   -2.1560   -0.0487   -1.2508 C   0  0  0  0  0  0  0  0  0  0  0  0
   -1.2684   -0.5995   -0.3544 C   0  0  0  0  0  0  0  0  0  0  0  0
   -0.0648    0.0644   -0.0917 C   0  0  0  0  0  0  0  0  0  0  0  0
    0.9346   -0.4859    0.8687 C   0  0  0  0  0  0  0  0  0  0  0  0
    1.0178   -1.8593    1.1479 C   0  0  0  0  0  0  0  0  0  0  0  0
    1.9501   -2.3525    2.0531 C   0  0  0  0  0  0  0  0  0  0  0  0
    2.7978   -1.4632    2.6732 C   0  0  0  0  0  0  0  0  0  0  0  0
    3.7021   -1.9363    3.5562 F   0  0  0  0  0  0  0  0  0  0  0  0
    2.7630   -0.1051    2.4246 C   0  0  0  0  0  0  0  0  0  0  0  0
    1.8294    0.3776    1.5163 C   0  0  0  0  0  0  0  0  0  0  0  0
    0.2287    1.2256   -0.6863 N   0  0  0  0  0  0  0  0  0  0  0  0
   -0.6325    1.7471   -1.5486 C   0  0  0  0  0  0  0  0  0  0  0  0
   -2.7453    1.2780   -3.8258 H   0  0  0  0  0  0  0  0  0  0  0  0
   -2.5613    2.8435   -3.0330 H   0  0  0  0  0  0  0  0  0  0  0  0
   -3.8256    1.7119   -2.5226 H   0  0  0  0  0  0  0  0  0  0  0  0
   -3.0912   -0.5457   -1.4688 H   0  0  0  0  0  0  0  0  0  0  0  0
   -1.4908   -1.5247    0.1561 H   0  0  0  0  0  0  0  0  0  0  0  0
    0.3587   -2.5560    0.6518 H   0  0  0  0  0  0  0  0  0  0  0  0
    2.0136   -3.4124    2.2596 H   0  0  0  0  0  0  0  0  0  0  0  0
    3.4460    0.5630    2.9341 H   0  0  0  0  0  0  0  0  0  0  0  0
    1.7954    1.4362    1.2978 H   0  0  0  0  0  0  0  0  0  0  0  0
   -0.3443    2.6897   -2.0041 H   0  0  0  0  0  0  0  0  0  0  0  0
  1  2  1  0
  2  3  2  0
  3  4  1  0
  4  5  2  0
  5  6  1  0
  6  7  1  0
  7  8  2  0
  8  9  1  0
  9 10  1  0
  9 11  2  0
 11 12  1  0
  5 13  1  0
 13 14  2  0
 14  2  1  0
 12  6  2  0
  1 15  1  0
  1 16  1  0
  1 17  1  0
  3 18  1  0
  4 19  1  0
  7 20  1  0
  8 21  1  0
 11 22  1  0
 12 23  1  0
 14 24  1  0
M  END
$$$$

     RDKit          3D

 24 25  0  0  0  0  0  0  0  0999 V2000
   -0.8262    4.2527    0.7150 C   0  0  0  0  0  0  0  0  0  0  0  0
   -0.5092    2.8150    0.4767 C   0  0  0  0  0  0  0  0  0  0  0  0
    0.6732    2.2227    0.9350 C   0  0  0  0  0  0  0  0  0  0  0  0
    0.9180    0.8880    0.7060 C   0  0  0  0  0  0  0  0  0  0  0  0
   -0.0264    0.1247    0.0065 C   0  0  0  0  0  0  0  0  0  0  0  0
    0.1803   -1.3275   -0.2742 C   0  0  0  0  0  0  0  0  0  0  0  0
    1.4152   -1.9661   -0.0664 C   0  0  0  0  0  0  0  0  0  0  0  0
    1.5807   -3.3219   -0.3201 C   0  0  0  0  0  0  0  0  0  0  0  0
    0.5064   -4.0370   -0.7934 C   0  0  0  0  0  0  0  0  0  0  0  0
    0.6553   -5.3519   -1.0381 F   0  0  0  0  0  0  0  0  0  0  0  0
   -0.7256   -3.4561   -1.0273 C   0  0  0  0  0  0  0  0  0  0  0  0
   -0.8815   -2.1009   -0.7687 C   0  0  0  0  0  0  0  0  0  0  0  0
   -1.1644    0.6803   -0.4317 N   0  0  0  0  0  0  0  0  0  0  0  0
   -1.3902    1.9656   -0.2067 C   0  0  0  0  0  0  0  0  0  0  0  0
   -1.1259    4.4132    1.7462 H   0  0  0  0  0  0  0  0  0  0  0  0
    0.0482    4.8779    0.5395 H   0  0  0  0  0  0  0  0  0  0  0  0
   -1.6348    4.5967    0.0670 H   0  0  0  0  0  0  0  0  0  0  0  0
    1.3921    2.8202    1.4754 H   0  0  0  0  0  0  0  0  0  0  0  0
    1.8237    0.4275    1.0698 H   0  0  0  0  0  0  0  0  0  0  0  0
    2.2652   -1.4048    0.2855 H   0  0  0  0  0  0  0  0  0  0  0  0
    2.5347   -3.7996   -0.1507 H   0  0  0  0  0  0  0  0  0  0  0  0
   -1.5463   -4.0500   -1.4070 H   0  0  0  0  0  0  0  0  0  0  0  0
   -1.8376   -1.6316   -0.9485 H   0  0  0  0  0  0  0  0  0  0  0  0
   -2.3247    2.3630   -0.5897 H   0  0  0  0  0  0  0  0  0  0  0  0
  1  2  1  0
  2  3  2  0
  3  4  1  0
  4  5  2  0
  5  6  1  0
  6  7  1  0
  7  8  2  0
  8  9  1  0
  9 10  1  0
  9 11  2  0
 11 12  1  0
  5 13  1  0
 13 14  2  0
 14  2  1  0
 12  6  2  0
  1 15  1  0
  1 16  1  0
  1 17  1  0
  3 18  1  0
  4 19  1  0
  7 20  1  0
  8 21  1  0
 11 22  1  0
 12 23  1  0
 14 24  1  0
M  END
$$$$

     RDKit          3D

 24 25  0  0  0  0  0  0  0  0999 V2000
    2.5389   -0.0567    3.5825 C   0  0  0  0  0  0  0  0  0  0  0  0
    1.7052   -0.0636    2.3451 C   0  0  0  0  0  0  0  0  0  0  0  0
    1.9299   -0.9511    1.2874 C   0  0  0  0  0  0  0  0  0  0  0  0
    1.1252   -0.9237    0.1696 C   0  0  0  0  0  0  0  0  0  0  0  0
    0.0777    0.0025    0.0984 C   0  0  0  0  0  0  0  0  0  0  0  0
   -0.8279    0.0895   -1.0858 C   0  0  0  0  0  0  0  0  0  0  0  0
   -0.5774   -0.6009   -2.2840 C   0  0  0  0  0  0  0  0  0  0  0  0
   -1.4478   -0.5147   -3.3619 C   0  0  0  0  0  0  0  0  0  0  0  0
   -2.5660    0.2752   -3.2427 C   0  0  0  0  0  0  0  0  0  0  0  0
   -3.4140    0.3635   -4.2835 F   0  0  0  0  0  0  0  0  0  0  0  0
   -2.8544    0.9829   -2.0922 C   0  0  0  0  0  0  0  0  0  0  0  0
   -1.9798    0.8888   -1.0194 C   0  0  0  0  0  0  0  0  0  0  0  0
   -0.1555    0.8497    1.1132 N   0  0  0  0  0  0  0  0  0  0  0  0
    0.6248    0.8143    2.1821 C   0  0  0  0  0  0  0  0  0  0  0  0
    2.6535    0.9544    3.9786 H   0  0  0  0  0  0  0  0  0  0  0  0
    3.5301   -0.4692    3.3901 H   0  0  0  0  0  0  0  0  0  0  0  0
    2.0836   -0.6633    4.3595 H   0  0  0  0  0  0  0  0  0  0  0  0
    2.7405   -1.6611    1.3505 H   0  0  0  0  0  0  0  0  0  0  0  0
    1.2919   -1.6172   -0.6386 H   0  0  0  0  0  0  0  0  0  0  0  0
    0.3074   -1.2063   -2.3941 H   0  0  0  0  0  0  0  0  0  0  0  0
   -1.2452   -1.0558   -4.2744 H   0  0  0  0  0  0  0  0  0  0  0  0
   -3.7442    1.5972   -2.0357 H   0  0  0  0  0  0  0  0  0  0  0  0
   -2.1889    1.4414   -0.1173 H   0  0  0  0  0  0  0  0  0  0  0  0
    0.3925    1.5242    2.9727 H   0  0  0  0  0  0  0  0  0  0  0  0
  1  2  1  0
  2  3  2  0
  3  4  1  0
  4  5  2  0
  5  6  1  0
  6  7  1  0
  7  8  2  0
  8  9  1  0
  9 10  1  0
  9 11  2  0
 11 12  1  0
  5 13  1  0
 13 14  2  0
 14  2  1  0
 12  6  2  0
  1 15  1  0
  1 16  1  0
  1 17  1  0
  3 18  1  0
  4 19  1  0
  7 20  1  0
  8 21  1  0
 11 22  1  0
 12 23  1  0
 14 24  1  0
M  END
$$$$

     RDKit          3D

 24 25  0  0  0  0  0  0  0  0999 V2000
    1.1709    4.1317   -0.9139 C   0  0  0  0  0  0  0  0  0  0  0  0
    0.8106    2.7144   -0.6228 C   0  0  0  0  0  0  0  0  0  0  0  0
    1.7236    1.6634   -0.7378 C   0  0  0  0  0  0  0  0  0  0  0  0
    1.3415    0.3714   -0.4519 C   0  0  0  0  0  0  0  0  0  0  0  0
    0.0300    0.1181   -0.0354 C   0  0  0  0  0  0  0  0  0  0  0  0
   -0.4422   -1.2576    0.3063 C   0  0  0  0  0  0  0  0  0  0  0  0
    0.4238   -2.3652    0.3618 C   0  0  0  0  0  0  0  0  0  0  0  0
   -0.0436   -3.6332    0.6781 C   0  0  0  0  0  0  0  0  0  0  0  0
   -1.3823   -3.7937    0.9451 C   0  0  0  0  0  0  0  0  0  0  0  0
   -1.8414   -5.0188    1.2578 F   0  0  0  0  0  0  0  0  0  0  0  0
   -2.2754   -2.7394    0.9106 C   0  0  0  0  0  0  0  0  0  0  0  0
   -1.7998   -1.4758    0.5881 C   0  0  0  0  0  0  0  0  0  0  0  0
   -0.8590    1.1205    0.0709 N   0  0  0  0  0  0  0  0  0  0  0  0
   -0.4813    2.3567   -0.2096 C   0  0  0  0  0  0  0  0  0  0  0  0
    1.0734    4.7493   -0.0243 H   0  0  0  0  0  0  0  0  0  0  0  0
    2.1998    4.2141   -1.2712 H   0  0  0  0  0  0  0  0  0  0  0  0
    0.5127    4.5554   -1.6729 H   0  0  0  0  0  0  0  0  0  0  0  0
    2.7333    1.8677   -1.0539 H   0  0  0  0  0  0  0  0  0  0  0  0
    2.0443   -0.4386   -0.5537 H   0  0  0  0  0  0  0  0  0  0  0  0
    1.4747   -2.2474    0.1523 H   0  0  0  0  0  0  0  0  0  0  0  0
    0.6336   -4.4746    0.7141 H   0  0  0  0  0  0  0  0  0  0  0  0
   -3.3236   -2.9043    1.1216 H   0  0  0  0  0  0  0  0  0  0  0  0
   -2.4858   -0.6455    0.5540 H   0  0  0  0  0  0  0  0  0  0  0  0
   -1.2380    3.1317   -0.1130 H   0  0  0  0  0  0  0  0  0  0  0  0
  1  2  1  0
  2  3  2  0
  3  4  1  0
  4  5  2  0
  5  6  1  0
  6  7  1  0
  7  8  2  0
  8  9  1  0
  9 10  1  0
  9 11  2  0
 11 12  1  0
  5 13  1  0
 13 14  2  0
 14  2  1  0
 12  6  2  0
  1 15  1  0
  1 16  1  0
  1 17  1  0
  3 18  1  0
  4 19  1  0
  7 20  1  0
  8 21  1  0
 11 22  1  0
 12 23  1  0
 14 24  1  0
M  END
$$$$

     RDKit          3D

 24 25  0  0  0  0  0  0  0  0999 V2000
   -3.2347   -2.1369   -2.0585 C   0  0  0  0  0  0  0  0  0  0  0  0
   -2.1385   -1.4301   -1.3348 C   0  0  0  0  0  0  0  0  0  0  0  0
   -1.2300   -2.1137   -0.5181 C   0  0  0  0  0  0  0  0  0  0  0  0
   -0.2225   -1.4313    0.1251 C   0  0  0  0  0  0  0  0  0  0  0  0
   -0.1091   -0.0461   -0.0514 C   0  0  0  0  0  0  0  0  0  0  0  0
    0.9773    0.7434    0.5999 C   0  0  0  0  0  0  0  0  0  0  0  0
    2.1173    0.1365    1.1542 C   0  0  0  0  0  0  0  0  0  0  0  0
    3.1164    0.8895    1.7598 C   0  0  0  0  0  0  0  0  0  0  0  0
    2.9706    2.2567    1.8049 C   0  0  0  0  0  0  0  0  0  0  0  0
    3.9330    2.9951    2.3899 F   0  0  0  0  0  0  0  0  0  0  0  0
    1.8744    2.9032    1.2660 C   0  0  0  0  0  0  0  0  0  0  0  0
    0.8818    2.1410    0.6639 C   0  0  0  0  0  0  0  0  0  0  0  0
   -0.9814    0.6237   -0.8155 N   0  0  0  0  0  0  0  0  0  0  0  0
   -1.9498   -0.0428   -1.4281 C   0  0  0  0  0  0  0  0  0  0  0  0
   -3.8637   -1.4372   -2.6173 H   0  0  0  0  0  0  0  0  0  0  0  0
   -3.8652   -2.6873   -1.3646 H   0  0  0  0  0  0  0  0  0  0  0  0
   -2.8313   -2.8669   -2.7566 H   0  0  0  0  0  0  0  0  0  0  0  0
   -1.3291   -3.1829   -0.3923 H   0  0  0  0  0  0  0  0  0  0  0  0
    0.4705   -1.9534    0.7679 H   0  0  0  0  0  0  0  0  0  0  0  0
    2.2355   -0.9337    1.1091 H   0  0  0  0  0  0  0  0  0  0  0  0
    3.9888    0.4098    2.1811 H   0  0  0  0  0  0  0  0  0  0  0  0
    1.7942    3.9805    1.3180 H   0  0  0  0  0  0  0  0  0  0  0  0
    0.0246    2.6329    0.2284 H   0  0  0  0  0  0  0  0  0  0  0  0
   -2.6289    0.5500   -2.0311 H   0  0  0  0  0  0  0  0  0  0  0  0
  1  2  1  0
  2  3  2  0
  3  4  1  0
  4  5  2  0
  5  6  1  0
  6  7  1  0
  7  8  2  0
  8  9  1  0
  9 10  1  0
  9 11  2  0
 11 12  1  0
  5 13  1  0
 13 14  2  0
 14  2  1  0
 12  6  2  0
  1 15  1  0
  1 16  1  0
  1 17  1  0
  3 18  1  0
  4 19  1  0
  7 20  1  0
  8 21  1  0
 11 22  1  0
 12 23  1  0
 14 24  1  0
M  END
$$$$

     RDKit          3D

 24 25  0  0  0  0  0  0  0  0999 V2000
   -3.4259   -1.3719   -2.3716 C   0  0  0  0  0  0  0  0  0  0  0  0
   -2.2637   -0.8632   -1.5868 C   0  0  0  0  0  0  0  0  0  0  0  0
   -2.0748    0.4932   -1.3048 C   0  0  0  0  0  0  0  0  0  0  0  0
   -0.9973    0.9048   -0.5517 C   0  0  0  0  0  0  0  0  0  0  0  0
   -0.0930   -0.0500   -0.0722 C   0  0  0  0  0  0  0  0  0  0  0  0
    1.0892    0.3362    0.7517 C   0  0  0  0  0  0  0  0  0  0  0  0
    1.1443    1.5515    1.4541 C   0  0  0  0  0  0  0  0  0  0  0  0
    2.2559    1.8946    2.2134 C   0  0  0  0  0  0  0  0  0  0  0  0
    3.3124    1.0143    2.2663 C   0  0  0  0  0  0  0  0  0  0  0  0
    4.3946    1.3415    2.9984 F   0  0  0  0  0  0  0  0  0  0  0  0
    3.3035   -0.1971    1.6018 C   0  0  0  0  0  0  0  0  0  0  0  0
    2.1864   -0.5317    0.8475 C   0  0  0  0  0  0  0  0  0  0  0  0
   -0.2563   -1.3517   -0.3456 N   0  0  0  0  0  0  0  0  0  0  0  0
   -1.2975   -1.7364   -1.0650 C   0  0  0  0  0  0  0  0  0  0  0  0
   -4.1785   -1.7938   -1.7086 H   0  0  0  0  0  0  0  0  0  0  0  0
   -3.1208   -2.1608   -3.0609 H   0  0  0  0  0  0  0  0  0  0  0  0
   -3.8958   -0.5719   -2.9452 H   0  0  0  0  0  0  0  0  0  0  0  0
   -2.7741    1.2204   -1.6899 H   0  0  0  0  0  0  0  0  0  0  0  0
   -0.8338    1.9517   -0.3438 H   0  0  0  0  0  0  0  0  0  0  0  0
    0.3113    2.2353    1.4213 H   0  0  0  0  0  0  0  0  0  0  0  0
    2.2874    2.8307    2.7547 H   0  0  0  0  0  0  0  0  0  0  0  0
    4.1529   -0.8649    1.6657 H   0  0  0  0  0  0  0  0  0  0  0  0
    2.1582   -1.4781    0.3280 H   0  0  0  0  0  0  0  0  0  0  0  0
   -1.3846   -2.8028   -1.2568 H   0  0  0  0  0  0  0  0  0  0  0  0
  1  2  1  0
  2  3  2  0
  3  4  1  0
  4  5  2  0
  5  6  1  0
  6  7  1  0
  7  8  2  0
  8  9  1  0
  9 10  1  0
  9 11  2  0
 11 12  1  0
  5 13  1  0
 13 14  2  0
 14  2  1  0
 12  6  2  0
  1 15  1  0
  1 16  1  0
  1 17  1  0
  3 18  1  0
  4 19  1  0
  7 20  1  0
  8 21  1  0
 11 22  1  0
 12 23  1  0
 14 24  1  0
M  END
$$$$

     RDKit          3D

 24 25  0  0  0  0  0  0  0  0999 V2000
   -0.9685    3.1943   -2.8408 C   0  0  0  0  0  0  0  0  0  0  0  0
   -0.6626    2.1121   -1.8617 C   0  0  0  0  0  0  0  0  0  0  0  0
   -1.0790    2.1786   -0.5268 C   0  0  0  0  0  0  0  0  0  0  0  0
   -0.7750    1.1620    0.3472 C   0  0  0  0  0  0  0  0  0  0  0  0
   -0.0432    0.0610   -0.1134 C   0  0  0  0  0  0  0  0  0  0  0  0
    0.3397   -1.0482    0.8034 C   0  0  0  0  0  0  0  0  0  0  0  0
    0.5393   -0.8263    2.1760 C   0  0  0  0  0  0  0  0  0  0  0  0
    0.9155   -1.8602    3.0257 C   0  0  0  0  0  0  0  0  0  0  0  0
    1.0870   -3.1168    2.4915 C   0  0  0  0  0  0  0  0  0  0  0  0
    1.4574   -4.1265    3.3058 F   0  0  0  0  0  0  0  0  0  0  0  0
    0.8967   -3.3874    1.1488 C   0  0  0  0  0  0  0  0  0  0  0  0
    0.5243   -2.3453    0.3087 C   0  0  0  0  0  0  0  0  0  0  0  0
    0.3390   -0.0305   -1.3913 N   0  0  0  0  0  0  0  0  0  0  0  0
    0.0470    0.9575   -2.2232 C   0  0  0  0  0  0  0  0  0  0  0  0
   -2.0200    3.1814   -3.1101 H   0  0  0  0  0  0  0  0  0  0  0  0
   -0.7679    4.1764   -2.4103 H   0  0  0  0  0  0  0  0  0  0  0  0
   -0.3760    3.0895   -3.7528 H   0  0  0  0  0  0  0  0  0  0  0  0
   -1.6438    3.0369   -0.1884 H   0  0  0  0  0  0  0  0  0  0  0  0
   -1.1041    1.1928    1.3756 H   0  0  0  0  0  0  0  0  0  0  0  0
    0.4142    0.1667    2.5816 H   0  0  0  0  0  0  0  0  0  0  0  0
    1.0750   -1.6787    4.0804 H   0  0  0  0  0  0  0  0  0  0  0  0
    1.0379   -4.3901    0.7665 H   0  0  0  0  0  0  0  0  0  0  0  0
    0.3728   -2.5382   -0.7461 H   0  0  0  0  0  0  0  0  0  0  0  0
    0.3942    0.8393   -3.2461 H   0  0  0  0  0  0  0  0  0  0  0  0
  1  2  1  0
  2  3  2  0
  3  4  1  0
  4  5  2  0
  5  6  1  0
  6  7  1  0
  7  8  2  0
  8  9  1  0
  9 10  1  0
  9 11  2  0
 11 12  1  0
  5 13  1  0
 13 14  2  0
 14  2  1  0
 12  6  2  0
  1 15  1  0
  1 16  1  0
  1 17  1  0
  3 18  1  0
  4 19  1  0
  7 20  1  0
  8 21  1  0
 11 22  1  0
 12 23  1  0
 14 24  1  0
M  END
$$$$

     RDKit          3D

 24 25  0  0  0  0  0  0  0  0999 V2000
   -0.5524   -4.1227    1.3980 C   0  0  0  0  0  0  0  0  0  0  0  0
   -0.3483   -2.7322    0.8984 C   0  0  0  0  0  0  0  0  0  0  0  0
    0.8198   -2.3448    0.2334 C   0  0  0  0  0  0  0  0  0  0  0  0
    0.9780   -1.0483   -0.1990 C   0  0  0  0  0  0  0  0  0  0  0  0
   -0.0437   -0.1180    0.0316 C   0  0  0  0  0  0  0  0  0  0  0  0
    0.0751    1.3019   -0.4107 C   0  0  0  0  0  0  0  0  0  0  0  0
    0.9725    1.6960   -1.4172 C   0  0  0  0  0  0  0  0  0  0  0  0
    1.0814    3.0249   -1.8077 C   0  0  0  0  0  0  0  0  0  0  0  0
    0.2844    3.9583   -1.1864 C   0  0  0  0  0  0  0  0  0  0  0  0
    0.3907    5.2496   -1.5541 F   0  0  0  0  0  0  0  0  0  0  0  0
   -0.6210    3.6211   -0.1985 C   0  0  0  0  0  0  0  0  0  0  0  0
   -0.7236    2.2896    0.1828 C   0  0  0  0  0  0  0  0  0  0  0  0
   -1.1623   -0.4736    0.6743 N   0  0  0  0  0  0  0  0  0  0  0  0
   -1.3073   -1.7263    1.0822 C   0  0  0  0  0  0  0  0  0  0  0  0
   -0.2319   -4.8548    0.6581 H   0  0  0  0  0  0  0  0  0  0  0  0
   -1.5990   -4.3115    1.6447 H   0  0  0  0  0  0  0  0  0  0  0  0
    0.0410   -4.2986    2.2941 H   0  0  0  0  0  0  0  0  0  0  0  0
    1.6020   -3.0715    0.0674 H   0  0  0  0  0  0  0  0  0  0  0  0
    1.8831   -0.7425   -0.7028 H   0  0  0  0  0  0  0  0  0  0  0  0
    1.5931    0.9608   -1.9027 H   0  0  0  0  0  0  0  0  0  0  0  0
    1.7731    3.3165   -2.5863 H   0  0  0  0  0  0  0  0  0  0  0  0
   -1.2309    4.3842    0.2686 H   0  0  0  0  0  0  0  0  0  0  0  0
   -1.4362    2.0046    0.9446 H   0  0  0  0  0  0  0  0  0  0  0  0
   -2.2377   -1.9628    1.5872 H   0  0  0  0  0  0  0  0  0  0  0  0
  1  2  1  0
  2  3  2  0
  3  4  1  0
  4  5  2  0
  5  6  1  0
  6  7  1  0
  7  8  2  0
  8  9  1  0
  9 10  1  0
  9 11  2  0
 11 12  1  0
  5 13  1  0
 13 14  2  0
 14  2  1  0
 12  6  2  0
  1 15  1  0
  1 16  1  0
  1 17  1  0
  3 18  1  0
  4 19  1  0
  7 20  1  0
  8 21  1  0
 11 22  1  0
 12 23  1  0
 14 24  1  0
M  END
$$$$

     RDKit          3D

 24 25  0  0  0  0  0  0  0  0999 V2000
   -2.6942    0.0349    3.4657 C   0  0  0  0  0  0  0  0  0  0  0  0
   -1.7558   -0.0145    2.3084 C   0  0  0  0  0  0  0  0  0  0  0  0
   -0.6171   -0.8250    2.2856 C   0  0  0  0  0  0  0  0  0  0  0  0
    0.2148   -0.8272    1.1882 C   0  0  0  0  0  0  0  0  0  0  0  0
   -0.0860   -0.0081    0.0945 C   0  0  0  0  0  0  0  0  0  0  0  0
    0.7851    0.0444   -1.1184 C   0  0  0  0  0  0  0  0  0  0  0  0
    2.0209   -0.6247   -1.1943 C   0  0  0  0  0  0  0  0  0  0  0  0
    2.8150   -0.5518   -2.3302 C   0  0  0  0  0  0  0  0  0  0  0  0
    2.3692    0.1924   -3.3959 C   0  0  0  0  0  0  0  0  0  0  0  0
    3.1347    0.2694   -4.4991 F   0  0  0  0  0  0  0  0  0  0  0  0
    1.1617    0.8656   -3.3756 C   0  0  0  0  0  0  0  0  0  0  0  0
    0.3756    0.7897   -2.2342 C   0  0  0  0  0  0  0  0  0  0  0  0
   -1.1836    0.7673    0.1022 N   0  0  0  0  0  0  0  0  0  0  0  0
   -1.9749    0.7618    1.1603 C   0  0  0  0  0  0  0  0  0  0  0  0
   -2.7865    1.0518    3.8496 H   0  0  0  0  0  0  0  0  0  0  0  0
   -2.3528   -0.6075    4.2794 H   0  0  0  0  0  0  0  0  0  0  0  0
   -3.6902   -0.2891    3.1720 H   0  0  0  0  0  0  0  0  0  0  0  0
   -0.3882   -1.4523    3.1326 H   0  0  0  0  0  0  0  0  0  0  0  0
    1.0874   -1.4601    1.1670 H   0  0  0  0  0  0  0  0  0  0  0  0
    2.3776   -1.2080   -0.3605 H   0  0  0  0  0  0  0  0  0  0  0  0
    3.7613   -1.0719   -2.3747 H   0  0  0  0  0  0  0  0  0  0  0  0
    0.8425    1.4408   -4.2347 H   0  0  0  0  0  0  0  0  0  0  0  0
   -0.5687    1.3114   -2.2058 H   0  0  0  0  0  0  0  0  0  0  0  0
   -2.8478    1.4107    1.1180 H   0  0  0  0  0  0  0  0  0  0  0  0
  1  2  1  0
  2  3  2  0
  3  4  1  0
  4  5  2  0
  5  6  1  0
  6  7  1  0
  7  8  2  0
  8  9  1  0
  9 10  1  0
  9 11  2  0
 11 12  1  0
  5 13  1  0
 13 14  2  0
 14  2  1  0
 12  6  2  0
  1 15  1  0
  1 16  1  0
  1 17  1  0
  3 18  1  0
  4 19  1  0
  7 20  1  0
  8 21  1  0
 11 22  1  0
 12 23  1  0
 14 24  1  0
M  END
$$$$

     RDKit          3D

 24 25  0  0  0  0  0  0  0  0999 V2000
    2.8796   -1.1571    3.1064 C   0  0  0  0  0  0  0  0  0  0  0  0
    1.8950   -0.7947    2.0465 C   0  0  0  0  0  0  0  0  0  0  0  0
    0.8207   -1.6294    1.7174 C   0  0  0  0  0  0  0  0  0  0  0  0
   -0.0786   -1.2532    0.7464 C   0  0  0  0  0  0  0  0  0  0  0  0
    0.0888   -0.0283    0.0878 C   0  0  0  0  0  0  0  0  0  0  0  0
   -0.8526    0.4346   -0.9769 C   0  0  0  0  0  0  0  0  0  0  0  0
   -1.9523   -0.3313   -1.4019 C   0  0  0  0  0  0  0  0  0  0  0  0
   -2.8065    0.1203   -2.3993 C   0  0  0  0  0  0  0  0  0  0  0  0
   -2.5613    1.3471   -2.9698 C   0  0  0  0  0  0  0  0  0  0  0  0
   -3.3851    1.7912   -3.9354 F   0  0  0  0  0  0  0  0  0  0  0  0
   -1.5001    2.1444   -2.5838 C   0  0  0  0  0  0  0  0  0  0  0  0
   -0.6491    1.6823   -1.5890 C   0  0  0  0  0  0  0  0  0  0  0  0
    1.1130    0.7802    0.3938 N   0  0  0  0  0  0  0  0  0  0  0  0
    1.9740    0.4094    1.3316 C   0  0  0  0  0  0  0  0  0  0  0  0
    2.4328   -1.0598    4.0926 H   0  0  0  0  0  0  0  0  0  0  0  0
    3.7658   -0.5215    3.0678 H   0  0  0  0  0  0  0  0  0  0  0  0
    3.1930   -2.1954    3.0076 H   0  0  0  0  0  0  0  0  0  0  0  0
    0.7010   -2.5697    2.2339 H   0  0  0  0  0  0  0  0  0  0  0  0
   -0.9068   -1.8949    0.4935 H   0  0  0  0  0  0  0  0  0  0  0  0
   -2.1525   -1.2939   -0.9593 H   0  0  0  0  0  0  0  0  0  0  0  0
   -3.6456   -0.4816   -2.7182 H   0  0  0  0  0  0  0  0  0  0  0  0
   -1.3413    3.1074   -3.0524 H   0  0  0  0  0  0  0  0  0  0  0  0
    0.1842    2.2919   -1.2770 H   0  0  0  0  0  0  0  0  0  0  0  0
    2.7836    1.1019    1.5374 H   0  0  0  0  0  0  0  0  0  0  0  0
  1  2  1  0
  2  3  2  0
  3  4  1  0
  4  5  2  0
  5  6  1  0
  6  7  1  0
  7  8  2  0
  8  9  1  0
  9 10  1  0
  9 11  2  0
 11 12  1  0
  5 13  1  0
 13 14  2  0
 14  2  1  0
 12  6  2  0
  1 15  1  0
  1 16  1  0
  1 17  1  0
  3 18  1  0
  4 19  1  0
  7 20  1  0
  8 21  1  0
 11 22  1  0
 12 23  1  0
 14 24  1  0
M  END
$$$$

     RDKit          3D

 24 25  0  0  0  0  0  0  0  0999 V2000
    1.3769   -4.1368    0.4866 C   0  0  0  0  0  0  0  0  0  0  0  0
    0.9446   -2.7177    0.3391 C   0  0  0  0  0  0  0  0  0  0  0  0
    1.8288   -1.6421    0.4692 C   0  0  0  0  0  0  0  0  0  0  0  0
    1.3827   -0.3495    0.3080 C   0  0  0  0  0  0  0  0  0  0  0  0
    0.0340   -0.1236    0.0083 C   0  0  0  0  0  0  0  0  0  0  0  0
   -0.5106    1.2540   -0.1803 C   0  0  0  0  0  0  0  0  0  0  0  0
    0.3174    2.3624   -0.4278 C   0  0  0  0  0  0  0  0  0  0  0  0
   -0.2114    3.6372   -0.5838 C   0  0  0  0  0  0  0  0  0  0  0  0
   -1.5749    3.7981   -0.5013 C   0  0  0  0  0  0  0  0  0  0  0  0
   -2.0940    5.0320   -0.6444 F   0  0  0  0  0  0  0  0  0  0  0  0
   -2.4339    2.7402   -0.2771 C   0  0  0  0  0  0  0  0  0  0  0  0
   -1.8959    1.4710   -0.1159 C   0  0  0  0  0  0  0  0  0  0  0  0
   -0.8239   -1.1470   -0.1116 N   0  0  0  0  0  0  0  0  0  0  0  0
   -0.3845   -2.3851    0.0433 C   0  0  0  0  0  0  0  0  0  0  0  0
    2.2840   -4.2078    1.0886 H   0  0  0  0  0  0  0  0  0  0  0  0
    0.6008   -4.7424    0.9583 H   0  0  0  0  0  0  0  0  0  0  0  0
    1.5933   -4.5770   -0.4831 H   0  0  0  0  0  0  0  0  0  0  0  0
    2.8651   -1.8319    0.7046 H   0  0  0  0  0  0  0  0  0  0  0  0
    2.0579    0.4846    0.4297 H   0  0  0  0  0  0  0  0  0  0  0  0
    1.3853    2.2375   -0.5098 H   0  0  0  0  0  0  0  0  0  0  0  0
    0.4352    4.4830   -0.7715 H   0  0  0  0  0  0  0  0  0  0  0  0
   -3.5025    2.9049   -0.2250 H   0  0  0  0  0  0  0  0  0  0  0  0
   -2.5550    0.6339    0.0597 H   0  0  0  0  0  0  0  0  0  0  0  0
   -1.1194   -3.1779   -0.0641 H   0  0  0  0  0  0  0  0  0  0  0  0
  1  2  1  0
  2  3  2  0
  3  4  1  0
  4  5  2  0
  5  6  1  0
  6  7  1  0
  7  8  2  0
  8  9  1  0
  9 10  1  0
  9 11  2  0
 11 12  1  0
  5 13  1  0
 13 14  2  0
 14  2  1  0
 12  6  2  0
  1 15  1  0
  1 16  1  0
  1 17  1  0
  3 18  1  0
  4 19  1  0
  7 20  1  0
  8 21  1  0
 11 22  1  0
 12 23  1  0
 14 24  1  0
M  END
$$$$

     RDKit          3D

 24 25  0  0  0  0  0  0  0  0999 V2000
   -3.9296   -1.7246    0.9207 C   0  0  0  0  0  0  0  0  0  0  0  0
   -2.6047   -1.1037    0.6325 C   0  0  0  0  0  0  0  0  0  0  0  0
   -1.9985   -0.1816    1.4906 C   0  0  0  0  0  0  0  0  0  0  0  0
   -0.7631    0.3458    1.1874 C   0  0  0  0  0  0  0  0  0  0  0  0
   -0.1167   -0.0531    0.0118 C   0  0  0  0  0  0  0  0  0  0  0  0
    1.2288    0.4744   -0.3620 C   0  0  0  0  0  0  0  0  0  0  0  0
    2.0630    1.1207    0.5667 C   0  0  0  0  0  0  0  0  0  0  0  0
    3.3021    1.6264    0.1957 C   0  0  0  0  0  0  0  0  0  0  0  0
    3.7112    1.4717   -1.1083 C   0  0  0  0  0  0  0  0  0  0  0  0
    4.9108    1.9595   -1.4772 F   0  0  0  0  0  0  0  0  0  0  0  0
    2.9369    0.8302   -2.0561 C   0  0  0  0  0  0  0  0  0  0  0  0
    1.6990    0.3282   -1.6757 C   0  0  0  0  0  0  0  0  0  0  0  0
   -0.6944   -0.9254   -0.8274 N   0  0  0  0  0  0  0  0  0  0  0  0
   -1.8792   -1.4291   -0.5233 C   0  0  0  0  0  0  0  0  0  0  0  0
   -3.8132   -2.7716    1.1906 H   0  0  0  0  0  0  0  0  0  0  0  0
   -4.4318   -1.2186    1.7476 H   0  0  0  0  0  0  0  0  0  0  0  0
   -4.5803   -1.6856    0.0456 H   0  0  0  0  0  0  0  0  0  0  0  0
   -2.5064    0.1188    2.3938 H   0  0  0  0  0  0  0  0  0  0  0  0
   -0.2974    1.0658    1.8405 H   0  0  0  0  0  0  0  0  0  0  0  0
    1.7509    1.2313    1.5938 H   0  0  0  0  0  0  0  0  0  0  0  0
    3.9308    2.1237    0.9200 H   0  0  0  0  0  0  0  0  0  0  0  0
    3.2902    0.7267   -3.0734 H   0  0  0  0  0  0  0  0  0  0  0  0
    1.0915   -0.1923   -2.4007 H   0  0  0  0  0  0  0  0  0  0  0  0
   -2.3000   -2.1377   -1.2333 H   0  0  0  0  0  0  0  0  0  0  0  0
  1  2  1  0
  2  3  2  0
  3  4  1  0
  4  5  2  0
  5  6  1  0
  6  7  1  0
  7  8  2  0
  8  9  1  0
  9 10  1  0
  9 11  2  0
 11 12  1  0
  5 13  1  0
 13 14  2  0
 14  2  1  0
 12  6  2  0
  1 15  1  0
  1 16  1  0
  1 17  1  0
  3 18  1  0
  4 19  1  0
  7 20  1  0
  8 21  1  0
 11 22  1  0
 12 23  1  0
 14 24  1  0
M  END
$$$$
