
     RDKit          3D

 24 25  0  0  0  0  0  0  0  0999 V2000
    3.8060   -2.1018    0.7093 C   0  0  0  0  0  0  0  0  0  0  0  0
    2.5410   -1.3536    0.4644 C   0  0  0  0  0  0  0  0  0  0  0  0
    2.5151   -0.0971   -0.1467 C   0  0  0  0  0  0  0  0  0  0  0  0
    1.3186    0.5430   -0.3727 C   0  0  0  0  0  0  0  0  0  0  0  0
    0.1250   -0.0719    0.0195 C   0  0  0  0  0  0  0  0  0  0  0  0
   -1.2078    0.5720   -0.1873 C   0  0  0  0  0  0  0  0  0  0  0  0
   -1.3627    1.7615   -0.9149 C   0  0  0  0  0  0  0  0  0  0  0  0
   -2.6109    2.3497   -1.0844 C   0  0  0  0  0  0  0  0  0  0  0  0
   -3.7219    1.7446   -0.5326 C   0  0  0  0  0  0  0  0  0  0  0  0
   -5.2917    2.4745   -0.7497 Cl  0  0  0  0  0  0  0  0  0  0  0  0
   -3.6105    0.5641    0.1864 C   0  0  0  0  0  0  0  0  0  0  0  0
   -2.3588   -0.0159    0.3544 C   0  0  0  0  0  0  0  0  0  0  0  0
    0.1379   -1.2770    0.6073 N   0  0  0  0  0  0  0  0  0  0  0  0
    1.2930   -1.8858    0.8185 C   0  0  0  0  0  0  0  0  0  0  0  0
    4.6685   -1.4320    0.6996 H   0  0  0  0  0  0  0  0  0  0  0  0
    3.9616   -2.8516   -0.0622 H   0  0  0  0  0  0  0  0  0  0  0  0
    3.7810   -2.6192    1.6675 H   0  0  0  0  0  0  0  0  0  0  0  0
    3.4412    0.3730   -0.4373 H   0  0  0  0  0  0  0  0  0  0  0  0
    1.2981    1.5111   -0.8489 H   0  0  0  0  0  0  0  0  0  0  0  0
   -0.5062    2.2437   -1.3637 H   0  0  0  0  0  0  0  0  0  0  0  0
   -2.7018    3.2651   -1.6491 H   0  0  0  0  0  0  0  0  0  0  0  0
   -4.4886    0.1025    0.6164 H   0  0  0  0  0  0  0  0  0  0  0  0
   -2.2724   -0.9409    0.9058 H   0  0  0  0  0  0  0  0  0  0  0  0
    1.2464   -2.8582    1.3003 H   0  0  0  0  0  0  0  0  0  0  0  0
  1  2  1  0
  2  3  2  0
  3  4  1  0
  4  5  2  0
  5  6  1  0
  6  7  1  0
  7  8  2  0
  8  9  1  0
  9 10  1  0
  9 11  2  0
 11 12  1  0
  5 13  1  0
 13 14  2  0
 14  2  1  0
 12  6  2  0
  1 15  1  0
  1 16  1  0
  1 17  1  0
  3 18  1  0
  4 19  1  0
  7 20  1  0
  8 21  1  0
 11 22  1  0
 12 23  1  0
 14 24  1  0
M  END
$$$$

     RDKit          3D

 24 25  0  0  0  0  0  0  0  0999 V2000
   -3.1696   -1.9461   -2.3544 C   0  0  0  0  0  0  0  0  0  0  0  0
   -2.0970   -1.2488   -1.5887 C   0  0  0  0  0  0  0  0  0  0  0  0
   -1.7225    0.0758   -1.8339 C   0  0  0  0  0  0  0  0  0  0  0  0
   -0.7297    0.6690   -1.0851 C   0  0  0  0  0  0  0  0  0  0  0  0
   -0.1080   -0.0646   -0.0706 C   0  0  0  0  0  0  0  0  0  0  0  0
    0.9701    0.5221    0.7778 C   0  0  0  0  0  0  0  0  0  0  0  0
    1.1312    1.9069    0.9282 C   0  0  0  0  0  0  0  0  0  0  0  0
    2.1522    2.4339    1.7109 C   0  0  0  0  0  0  0  0  0  0  0  0
    3.0174    1.5723    2.3556 C   0  0  0  0  0  0  0  0  0  0  0  0
    4.3039    2.2276    3.3333 Cl  0  0  0  0  0  0  0  0  0  0  0  0
    2.8777    0.1970    2.2439 C   0  0  0  0  0  0  0  0  0  0  0  0
    1.8540   -0.3209    1.4599 C   0  0  0  0  0  0  0  0  0  0  0  0
   -0.4526   -1.3365    0.1677 N   0  0  0  0  0  0  0  0  0  0  0  0
   -1.4017   -1.8997   -0.5573 C   0  0  0  0  0  0  0  0  0  0  0  0
   -2.8147   -2.9014   -2.7447 H   0  0  0  0  0  0  0  0  0  0  0  0
   -3.5168   -1.3428   -3.1949 H   0  0  0  0  0  0  0  0  0  0  0  0
   -4.0219   -2.1625   -1.7157 H   0  0  0  0  0  0  0  0  0  0  0  0
   -2.2079    0.6317   -2.6209 H   0  0  0  0  0  0  0  0  0  0  0  0
   -0.4186    1.6851   -1.2834 H   0  0  0  0  0  0  0  0  0  0  0  0
    0.4539    2.5903    0.4367 H   0  0  0  0  0  0  0  0  0  0  0  0
    2.2516    3.5045    1.8173 H   0  0  0  0  0  0  0  0  0  0  0  0
    3.5582   -0.4671    2.7598 H   0  0  0  0  0  0  0  0  0  0  0  0
    1.7313   -1.3925    1.3822 H   0  0  0  0  0  0  0  0  0  0  0  0
   -1.6406   -2.9332   -0.3236 H   0  0  0  0  0  0  0  0  0  0  0  0
  1  2  1  0
  2  3  2  0
  3  4  1  0
  4  5  2  0
  5  6  1  0
  6  7  1  0
  7  8  2  0
  8  9  1  0
  9 10  1  0
  9 11  2  0
 11 12  1  0
  5 13  1  0
 13 14  2  0
 14  2  1  0
 12  6  2  0
  1 15  1  0
  1 16  1  0
  1 17  1  0
  3 18  1  0
  4 19  1  0
  7 20  1  0
  8 21  1  0
 11 22  1  0
 12 23  1  0
 14 24  1  0
M  END
$$$$

     RDKit          3D

 24 25  0  0  0  0  0  0  0  0999 V2000
    2.7062    3.4684    0.1993 C   0  0  0  0  0  0  0  0  0  0  0  0
    1.8290    2.2639    0.1274 C   0  0  0  0  0  0  0  0  0  0  0  0
    2.2622    0.9885    0.5019 C   0  0  0  0  0  0  0  0  0  0  0  0
    1.4044   -0.0877    0.4359 C   0  0  0  0  0  0  0  0  0  0  0  0
    0.0923    0.1100   -0.0057 C   0  0  0  0  0  0  0  0  0  0  0  0
   -0.8929   -1.0071   -0.0866 C   0  0  0  0  0  0  0  0  0  0  0  0
   -0.6658   -2.2501    0.5214 C   0  0  0  0  0  0  0  0  0  0  0  0
   -1.5927   -3.2815    0.4246 C   0  0  0  0  0  0  0  0  0  0  0  0
   -2.7624   -3.0704   -0.2774 C   0  0  0  0  0  0  0  0  0  0  0  0
   -3.9322   -4.3594   -0.4035 Cl  0  0  0  0  0  0  0  0  0  0  0  0
   -3.0285   -1.8501   -0.8804 C   0  0  0  0  0  0  0  0  0  0  0  0
   -2.0959   -0.8252   -0.7813 C   0  0  0  0  0  0  0  0  0  0  0  0
   -0.3302    1.3264   -0.3790 N   0  0  0  0  0  0  0  0  0  0  0  0
    0.4990    2.3530   -0.3123 C   0  0  0  0  0  0  0  0  0  0  0  0
    3.7497    3.1879    0.3634 H   0  0  0  0  0  0  0  0  0  0  0  0
    2.4023    4.1182    1.0156 H   0  0  0  0  0  0  0  0  0  0  0  0
    2.6483    4.0521   -0.7198 H   0  0  0  0  0  0  0  0  0  0  0  0
    3.2772    0.8479    0.8375 H   0  0  0  0  0  0  0  0  0  0  0  0
    1.7388   -1.0746    0.7214 H   0  0  0  0  0  0  0  0  0  0  0  0
    0.2363   -2.4267    1.0871 H   0  0  0  0  0  0  0  0  0  0  0  0
   -1.3917   -4.2311    0.8994 H   0  0  0  0  0  0  0  0  0  0  0  0
   -3.9520   -1.7001   -1.4241 H   0  0  0  0  0  0  0  0  0  0  0  0
   -2.3044    0.1312   -1.2411 H   0  0  0  0  0  0  0  0  0  0  0  0
    0.1032    3.3165   -0.6235 H   0  0  0  0  0  0  0  0  0  0  0  0
  1  2  1  0
  2  3  2  0
  3  4  1  0
  4  5  2  0
  5  6  1  0
  6  7  1  0
  7  8  2  0
  8  9  1  0
  9 10  1  0
  9 11  2  0
 11 12  1  0
  5 13  1  0
 13 14  2  0
 14  2  1  0
 12  6  2  0
  1 15  1  0
  1 16  1  0
  1 17  1  0
  3 18  1  0
  4 19  1  0
  7 20  1  0
  8 21  1  0
 11 22  1  0
 12 23  1  0
 14 24  1  0
M  END
$$$$

     RDKit          3D

 24 25  0  0  0  0  0  0  0  0999 V2000
   -4.0244   -1.2912    1.2365 C   0  0  0  0  0  0  0  0  0  0  0  0
   -2.6731   -0.8467    0.7926 C   0  0  0  0  0  0  0  0  0  0  0  0
   -2.3822   -0.5852   -0.5512 C   0  0  0  0  0  0  0  0  0  0  0  0
   -1.1223   -0.1794   -0.9229 C   0  0  0  0  0  0  0  0  0  0  0  0
   -0.1301   -0.0355    0.0536 C   0  0  0  0  0  0  0  0  0  0  0  0
    1.2584    0.3896   -0.2915 C   0  0  0  0  0  0  0  0  0  0  0  0
    1.7475    0.3560   -1.6064 C   0  0  0  0  0  0  0  0  0  0  0  0
    3.0448    0.7552   -1.9045 C   0  0  0  0  0  0  0  0  0  0  0  0
    3.8655    1.1926   -0.8832 C   0  0  0  0  0  0  0  0  0  0  0  0
    5.4953    1.6907   -1.2512 Cl  0  0  0  0  0  0  0  0  0  0  0  0
    3.4189    1.2408    0.4281 C   0  0  0  0  0  0  0  0  0  0  0  0
    2.1233    0.8310    0.7177 C   0  0  0  0  0  0  0  0  0  0  0  0
   -0.3971   -0.2732    1.3439 N   0  0  0  0  0  0  0  0  0  0  0  0
   -1.6141   -0.6614    1.6933 C   0  0  0  0  0  0  0  0  0  0  0  0
   -4.7763   -0.5518    0.9814 H   0  0  0  0  0  0  0  0  0  0  0  0
   -4.3122   -2.2090    0.7268 H   0  0  0  0  0  0  0  0  0  0  0  0
   -4.0601   -1.4714    2.3134 H   0  0  0  0  0  0  0  0  0  0  0  0
   -3.1560   -0.7054   -1.2952 H   0  0  0  0  0  0  0  0  0  0  0  0
   -0.9002    0.0432   -1.9556 H   0  0  0  0  0  0  0  0  0  0  0  0
    1.1215    0.0013   -2.4125 H   0  0  0  0  0  0  0  0  0  0  0  0
    3.4005    0.7165   -2.9236 H   0  0  0  0  0  0  0  0  0  0  0  0
    4.0724    1.5842    1.2190 H   0  0  0  0  0  0  0  0  0  0  0  0
    1.7755    0.8549    1.7412 H   0  0  0  0  0  0  0  0  0  0  0  0
   -1.7756   -0.8458    2.7501 H   0  0  0  0  0  0  0  0  0  0  0  0
  1  2  1  0
  2  3  2  0
  3  4  1  0
  4  5  2  0
  5  6  1  0
  6  7  1  0
  7  8  2  0
  8  9  1  0
  9 10  1  0
  9 11  2  0
 11 12  1  0
  5 13  1  0
 13 14  2  0
 14  2  1  0
 12  6  2  0
  1 15  1  0
  1 16  1  0
  1 17  1  0
  3 18  1  0
  4 19  1  0
  7 20  1  0
  8 21  1  0
 11 22  1  0
 12 23  1  0
 14 24  1  0
M  END
$$$$

     RDKit          3D

 24 25  0  0  0  0  0  0  0  0999 V2000
   -0.7585    4.3373    0.0161 C   0  0  0  0  0  0  0  0  0  0  0  0
   -0.4802    2.8724   -0.0299 C   0  0  0  0  0  0  0  0  0  0  0  0
    0.4569    2.3015   -0.8960 C   0  0  0  0  0  0  0  0  0  0  0  0
    0.6765    0.9419   -0.8871 C   0  0  0  0  0  0  0  0  0  0  0  0
   -0.0424    0.1381    0.0020 C   0  0  0  0  0  0  0  0  0  0  0  0
    0.1683   -1.3361    0.0671 C   0  0  0  0  0  0  0  0  0  0  0  0
    1.3605   -1.9320   -0.3683 C   0  0  0  0  0  0  0  0  0  0  0  0
    1.5410   -3.3096   -0.3074 C   0  0  0  0  0  0  0  0  0  0  0  0
    0.5266   -4.0984    0.2001 C   0  0  0  0  0  0  0  0  0  0  0  0
    0.7483   -5.8270    0.2823 Cl  0  0  0  0  0  0  0  0  0  0  0  0
   -0.6607   -3.5418    0.6503 C   0  0  0  0  0  0  0  0  0  0  0  0
   -0.8335   -2.1647    0.5829 C   0  0  0  0  0  0  0  0  0  0  0  0
   -0.9552    0.6695    0.8251 N   0  0  0  0  0  0  0  0  0  0  0  0
   -1.1566    1.9761    0.8128 C   0  0  0  0  0  0  0  0  0  0  0  0
   -0.1968    4.8748   -0.7499 H   0  0  0  0  0  0  0  0  0  0  0  0
   -0.4936    4.7505    0.9867 H   0  0  0  0  0  0  0  0  0  0  0  0
   -1.8210    4.5363   -0.1347 H   0  0  0  0  0  0  0  0  0  0  0  0
    1.0078    2.9279   -1.5791 H   0  0  0  0  0  0  0  0  0  0  0  0
    1.3864    0.4917   -1.5652 H   0  0  0  0  0  0  0  0  0  0  0  0
    2.1633   -1.3204   -0.7538 H   0  0  0  0  0  0  0  0  0  0  0  0
    2.4677   -3.7485   -0.6486 H   0  0  0  0  0  0  0  0  0  0  0  0
   -1.4465   -4.1707    1.0465 H   0  0  0  0  0  0  0  0  0  0  0  0
   -1.7550   -1.7234    0.9417 H   0  0  0  0  0  0  0  0  0  0  0  0
   -1.9031    2.3545    1.5063 H   0  0  0  0  0  0  0  0  0  0  0  0
  1  2  1  0
  2  3  2  0
  3  4  1  0
  4  5  2  0
  5  6  1  0
  6  7  1  0
  7  8  2  0
  8  9  1  0
  9 10  1  0
  9 11  2  0
 11 12  1  0
  5 13  1  0
 13 14  2  0
 14  2  1  0
 12  6  2  0
  1 15  1  0
  1 16  1  0
  1 17  1  0
  3 18  1  0
  4 19  1  0
  7 20  1  0
  8 21  1  0
 11 22  1  0
 12 23  1  0
 14 24  1  0
M  END
$$$$

     RDKit          3D

 24 25  0  0  0  0  0  0  0  0999 V2000
    2.5620   -0.1246   -3.5752 C   0  0  0  0  0  0  0  0  0  0  0  0
    1.7015   -0.0489   -2.3590 C   0  0  0  0  0  0  0  0  0  0  0  0
    1.5562    1.1281   -1.6162 C   0  0  0  0  0  0  0  0  0  0  0  0
    0.7479    1.1504   -0.5026 C   0  0  0  0  0  0  0  0  0  0  0  0
    0.0808   -0.0168   -0.1178 C   0  0  0  0  0  0  0  0  0  0  0  0
   -0.7954   -0.0571    1.0860 C   0  0  0  0  0  0  0  0  0  0  0  0
   -0.6153    0.8196    2.1647 C   0  0  0  0  0  0  0  0  0  0  0  0
   -1.4492    0.7724    3.2769 C   0  0  0  0  0  0  0  0  0  0  0  0
   -2.4687   -0.1597    3.3130 C   0  0  0  0  0  0  0  0  0  0  0  0
   -3.5258   -0.2227    4.7000 Cl  0  0  0  0  0  0  0  0  0  0  0  0
   -2.6728   -1.0446    2.2660 C   0  0  0  0  0  0  0  0  0  0  0  0
   -1.8289   -0.9963    1.1636 C   0  0  0  0  0  0  0  0  0  0  0  0
    0.1972   -1.1441   -0.8263 N   0  0  0  0  0  0  0  0  0  0  0  0
    0.9747   -1.1564   -1.8974 C   0  0  0  0  0  0  0  0  0  0  0  0
    2.8595   -1.1522   -3.7919 H   0  0  0  0  0  0  0  0  0  0  0  0
    3.4598    0.4821   -3.4570 H   0  0  0  0  0  0  0  0  0  0  0  0
    2.0335    0.2619   -4.4429 H   0  0  0  0  0  0  0  0  0  0  0  0
    2.0828    2.0203   -1.9251 H   0  0  0  0  0  0  0  0  0  0  0  0
    0.6109    2.0585    0.0674 H   0  0  0  0  0  0  0  0  0  0  0  0
    0.1943    1.5356    2.1508 H   0  0  0  0  0  0  0  0  0  0  0  0
   -1.2920    1.4558    4.1000 H   0  0  0  0  0  0  0  0  0  0  0  0
   -3.4781   -1.7687    2.3066 H   0  0  0  0  0  0  0  0  0  0  0  0
   -1.9765   -1.6926    0.3477 H   0  0  0  0  0  0  0  0  0  0  0  0
    1.0417   -2.1000   -2.4312 H   0  0  0  0  0  0  0  0  0  0  0  0
  1  2  1  0
  2  3  2  0
  3  4  1  0
  4  5  2  0
  5  6  1  0
  6  7  1  0
  7  8  2  0
  8  9  1  0
  9 10  1  0
  9 11  2  0
 11 12  1  0
  5 13  1  0
 13 14  2  0
 14  2  1  0
 12  6  2  0
  1 15  1  0
  1 16  1  0
  1 17  1  0
  3 18  1  0
  4 19  1  0
  7 20  1  0
  8 21  1  0
 11 22  1  0
 12 23  1  0
 14 24  1  0
M  END
$$$$

     RDKit          3D

 24 25  0  0  0  0  0  0  0  0999 V2000
   -3.1218   -2.9212   -1.0573 C   0  0  0  0  0  0  0  0  0  0  0  0
   -2.0963   -1.8951   -0.7118 C   0  0  0  0  0  0  0  0  0  0  0  0
   -2.4012   -0.5404   -0.5545 C   0  0  0  0  0  0  0  0  0  0  0  0
   -1.4133    0.3625   -0.2273 C   0  0  0  0  0  0  0  0  0  0  0  0
   -0.1034   -0.0906   -0.0406 C   0  0  0  0  0  0  0  0  0  0  0  0
    1.0110    0.8328    0.3259 C   0  0  0  0  0  0  0  0  0  0  0  0
    0.7925    2.1608    0.7236 C   0  0  0  0  0  0  0  0  0  0  0  0
    1.8483    2.9966    1.0645 C   0  0  0  0  0  0  0  0  0  0  0  0
    3.1380    2.5092    1.0051 C   0  0  0  0  0  0  0  0  0  0  0  0
    4.4669    3.5547    1.4320 Cl  0  0  0  0  0  0  0  0  0  0  0  0
    3.3943    1.2017    0.6185 C   0  0  0  0  0  0  0  0  0  0  0  0
    2.3323    0.3709    0.2837 C   0  0  0  0  0  0  0  0  0  0  0  0
    0.2019   -1.3888   -0.1902 N   0  0  0  0  0  0  0  0  0  0  0  0
   -0.7524   -2.2459   -0.5109 C   0  0  0  0  0  0  0  0  0  0  0  0
   -4.0652   -2.4577   -1.3517 H   0  0  0  0  0  0  0  0  0  0  0  0
   -2.7804   -3.5555   -1.8765 H   0  0  0  0  0  0  0  0  0  0  0  0
   -3.3164   -3.5709   -0.2079 H   0  0  0  0  0  0  0  0  0  0  0  0
   -3.4157   -0.2026   -0.6974 H   0  0  0  0  0  0  0  0  0  0  0  0
   -1.6421    1.4119   -0.1220 H   0  0  0  0  0  0  0  0  0  0  0  0
   -0.2093    2.5616    0.7765 H   0  0  0  0  0  0  0  0  0  0  0  0
    1.6501    4.0117    1.3749 H   0  0  0  0  0  0  0  0  0  0  0  0
    4.4092    0.8320    0.5751 H   0  0  0  0  0  0  0  0  0  0  0  0
    2.5268   -0.6519   -0.0076 H   0  0  0  0  0  0  0  0  0  0  0  0
   -0.4538   -3.2857   -0.6241 H   0  0  0  0  0  0  0  0  0  0  0  0
  1  2  1  0
  2  3  2  0
  3  4  1  0
  4  5  2  0
  5  6  1  0
  6  7  1  0
  7  8  2  0
  8  9  1  0
  9 10  1  0
  9 11  2  0
 11 12  1  0
  5 13  1  0
 13 14  2  0
 14  2  1  0
 12  6  2  0
  1 15  1  0
  1 16  1  0
  1 17  1  0
  3 18  1  0
  4 19  1  0
  7 20  1  0
  8 21  1  0
 11 22  1  0
 12 23  1  0
 14 24  1  0
M  END
$$$$

     RDKit          3D

 24 25  0  0  0  0  0  0  0  0999 V2000
    3.7421   -0.5137   -2.2609 C   0  0  0  0  0  0  0  0  0  0  0  0
    2.4499   -0.3333   -1.5368 C   0  0  0  0  0  0  0  0  0  0  0  0
    1.2279   -0.1434   -2.1904 C   0  0  0  0  0  0  0  0  0  0  0  0
    0.0678    0.0146   -1.4648 C   0  0  0  0  0  0  0  0  0  0  0  0
    0.1240   -0.0133   -0.0693 C   0  0  0  0  0  0  0  0  0  0  0  0
   -1.0950    0.1615    0.7694 C   0  0  0  0  0  0  0  0  0  0  0  0
   -2.2385    0.8237    0.2982 C   0  0  0  0  0  0  0  0  0  0  0  0
   -3.3697    0.9646    1.0940 C   0  0  0  0  0  0  0  0  0  0  0  0
   -3.3576    0.4450    2.3738 C   0  0  0  0  0  0  0  0  0  0  0  0
   -4.7754    0.6077    3.3789 Cl  0  0  0  0  0  0  0  0  0  0  0  0
   -2.2405   -0.2053    2.8762 C   0  0  0  0  0  0  0  0  0  0  0  0
   -1.1140   -0.3391    2.0748 C   0  0  0  0  0  0  0  0  0  0  0  0
    1.2855   -0.2125    0.5677 N   0  0  0  0  0  0  0  0  0  0  0  0
    2.3933   -0.3627   -0.1345 C   0  0  0  0  0  0  0  0  0  0  0  0
    4.5281    0.1008   -1.8221 H   0  0  0  0  0  0  0  0  0  0  0  0
    4.0745   -1.5466   -2.2036 H   0  0  0  0  0  0  0  0  0  0  0  0
    3.6445   -0.2514   -3.3165 H   0  0  0  0  0  0  0  0  0  0  0  0
    1.1948   -0.1179   -3.2686 H   0  0  0  0  0  0  0  0  0  0  0  0
   -0.8838    0.1448   -1.9596 H   0  0  0  0  0  0  0  0  0  0  0  0
   -2.2491    1.2524   -0.6952 H   0  0  0  0  0  0  0  0  0  0  0  0
   -4.2402    1.4754    0.7093 H   0  0  0  0  0  0  0  0  0  0  0  0
   -2.2422   -0.6010    3.8831 H   0  0  0  0  0  0  0  0  0  0  0  0
   -0.2361   -0.8376    2.4651 H   0  0  0  0  0  0  0  0  0  0  0  0
    3.3098   -0.5128    0.4317 H   0  0  0  0  0  0  0  0  0  0  0  0
  1  2  1  0
  2  3  2  0
  3  4  1  0
  4  5  2  0
  5  6  1  0
  6  7  1  0
  7  8  2  0
  8  9  1  0
  9 10  1  0
  9 11  2  0
 11 12  1  0
  5 13  1  0
 13 14  2  0
 14  2  1  0
 12  6  2  0
  1 15  1  0
  1 16  1  0
  1 17  1  0
  3 18  1  0
  4 19  1  0
  7 20  1  0
  8 21  1  0
 11 22  1  0
 12 23  1  0
 14 24  1  0
M  END
$$$$

     RDKit          3D

 24 25  0  0  0  0  0  0  0  0999 V2000
   -0.4831   -3.0976   -3.0956 C   0  0  0  0  0  0  0  0  0  0  0  0
   -0.3345   -2.0771   -2.0170 C   0  0  0  0  0  0  0  0  0  0  0  0
   -0.4143   -2.3948   -0.6580 C   0  0  0  0  0  0  0  0  0  0  0  0
   -0.2643   -1.4130    0.2967 C   0  0  0  0  0  0  0  0  0  0  0  0
   -0.0220   -0.0950   -0.1056 C   0  0  0  0  0  0  0  0  0  0  0  0
    0.1634    1.0093    0.8812 C   0  0  0  0  0  0  0  0  0  0  0  0
    0.3493    0.7650    2.2497 C   0  0  0  0  0  0  0  0  0  0  0  0
    0.5127    1.8068    3.1538 C   0  0  0  0  0  0  0  0  0  0  0  0
    0.4974    3.1074    2.6912 C   0  0  0  0  0  0  0  0  0  0  0  0
    0.7017    4.4188    3.8211 Cl  0  0  0  0  0  0  0  0  0  0  0  0
    0.3262    3.3894    1.3442 C   0  0  0  0  0  0  0  0  0  0  0  0
    0.1601    2.3414    0.4472 C   0  0  0  0  0  0  0  0  0  0  0  0
    0.0537    0.2224   -1.4064 N   0  0  0  0  0  0  0  0  0  0  0  0
   -0.0938   -0.7260   -2.3148 C   0  0  0  0  0  0  0  0  0  0  0  0
   -1.1659   -2.7487   -3.8722 H   0  0  0  0  0  0  0  0  0  0  0  0
   -0.8662   -4.0393   -2.6990 H   0  0  0  0  0  0  0  0  0  0  0  0
    0.4723   -3.2993   -3.5718 H   0  0  0  0  0  0  0  0  0  0  0  0
   -0.5995   -3.4133   -0.3569 H   0  0  0  0  0  0  0  0  0  0  0  0
   -0.3376   -1.6551    1.3463 H   0  0  0  0  0  0  0  0  0  0  0  0
    0.3677   -0.2466    2.6266 H   0  0  0  0  0  0  0  0  0  0  0  0
    0.6529    1.5895    4.2020 H   0  0  0  0  0  0  0  0  0  0  0  0
    0.3146    4.4138    0.9965 H   0  0  0  0  0  0  0  0  0  0  0  0
    0.0317    2.5585   -0.6041 H   0  0  0  0  0  0  0  0  0  0  0  0
   -0.0225   -0.4166   -3.3551 H   0  0  0  0  0  0  0  0  0  0  0  0
  1  2  1  0
  2  3  2  0
  3  4  1  0
  4  5  2  0
  5  6  1  0
  6  7  1  0
  7  8  2  0
  8  9  1  0
  9 10  1  0
  9 11  2  0
 11 12  1  0
  5 13  1  0
 13 14  2  0
 14  2  1  0
 12  6  2  0
  1 15  1  0
  1 16  1  0
  1 17  1  0
  3 18  1  0
  4 19  1  0
  7 20  1  0
  8 21  1  0
 11 22  1  0
 12 23  1  0
 14 24  1  0
M  END
$$$$

     RDKit          3D

 24 25  0  0  0  0  0  0  0  0999 V2000
    2.9339   -3.1542    0.9193 C   0  0  0  0  0  0  0  0  0  0  0  0
    1.9208   -2.1010    0.6267 C   0  0  0  0  0  0  0  0  0  0  0  0
    0.5475   -2.3461    0.7391 C   0  0  0  0  0  0  0  0  0  0  0  0
   -0.3606   -1.3514    0.4592 C   0  0  0  0  0  0  0  0  0  0  0  0
    0.0997   -0.0947    0.0495 C   0  0  0  0  0  0  0  0  0  0  0  0
   -0.8342    1.0183   -0.2943 C   0  0  0  0  0  0  0  0  0  0  0  0
   -2.2192    0.8309   -0.4218 C   0  0  0  0  0  0  0  0  0  0  0  0
   -3.0640    1.8838   -0.7537 C   0  0  0  0  0  0  0  0  0  0  0  0
   -2.5266    3.1391   -0.9601 C   0  0  0  0  0  0  0  0  0  0  0  0
   -3.5791    4.4661   -1.3824 Cl  0  0  0  0  0  0  0  0  0  0  0  0
   -1.1644    3.3644   -0.8372 C   0  0  0  0  0  0  0  0  0  0  0  0
   -0.3270    2.3061   -0.5120 C   0  0  0  0  0  0  0  0  0  0  0  0
    1.4112    0.1556   -0.0521 N   0  0  0  0  0  0  0  0  0  0  0  0
    2.2786   -0.8054    0.2266 C   0  0  0  0  0  0  0  0  0  0  0  0
    3.9500   -2.7991    0.7335 H   0  0  0  0  0  0  0  0  0  0  0  0
    2.8619   -3.4782    1.9538 H   0  0  0  0  0  0  0  0  0  0  0  0
    2.7595   -4.0355    0.3045 H   0  0  0  0  0  0  0  0  0  0  0  0
    0.2076   -3.3242    1.0487 H   0  0  0  0  0  0  0  0  0  0  0  0
   -1.4189   -1.5319    0.5667 H   0  0  0  0  0  0  0  0  0  0  0  0
   -2.6575   -0.1442   -0.2733 H   0  0  0  0  0  0  0  0  0  0  0  0
   -4.1265    1.7132   -0.8481 H   0  0  0  0  0  0  0  0  0  0  0  0
   -0.7556    4.3529   -0.9981 H   0  0  0  0  0  0  0  0  0  0  0  0
    0.7357    2.4818   -0.4212 H   0  0  0  0  0  0  0  0  0  0  0  0
    3.3272   -0.5464    0.1269 H   0  0  0  0  0  0  0  0  0  0  0  0
  1  2  1  0
  2  3  2  0
  3  4  1  0
  4  5  2  0
  5  6  1  0
  6  7  1  0
  7  8  2  0
  8  9  1  0
  9 10  1  0
  9 11  2  0
 11 12  1  0
  5 13  1  0
 13 14  2  0
 14  2  1  0
 12  6  2  0
  1 15  1  0
  1 16  1  0
  1 17  1  0
  3 18  1  0
  4 19  1  0
  7 20  1  0
  8 21  1  0
 11 22  1  0
 12 23  1  0
 14 24  1  0
M  END
$$$$

     RDKit          3D

 24 25  0  0  0  0  0  0  0  0999 V2000
   -2.2324   -3.5477    1.3394 C   0  0  0  0  0  0  0  0  0  0  0  0
   -1.4487   -2.3749    0.8567 C   0  0  0  0  0  0  0  0  0  0  0  0
   -0.2226   -2.4974    0.1990 C   0  0  0  0  0  0  0  0  0  0  0  0
    0.4603   -1.3738   -0.2110 C   0  0  0  0  0  0  0  0  0  0  0  0
   -0.0859   -0.1106    0.0373 C   0  0  0  0  0  0  0  0  0  0  0  0
    0.6109    1.1401   -0.3775 C   0  0  0  0  0  0  0  0  0  0  0  0
    1.5467    1.1531   -1.4208 C   0  0  0  0  0  0  0  0  0  0  0  0
    2.1885    2.3270   -1.7980 C   0  0  0  0  0  0  0  0  0  0  0  0
    1.8960    3.4990   -1.1280 C   0  0  0  0  0  0  0  0  0  0  0  0
    2.6976    4.9770   -1.5981 Cl  0  0  0  0  0  0  0  0  0  0  0  0
    0.9722    3.5252   -0.0938 C   0  0  0  0  0  0  0  0  0  0  0  0
    0.3332    2.3470    0.2746 C   0  0  0  0  0  0  0  0  0  0  0  0
   -1.2597    0.0217    0.6679 N   0  0  0  0  0  0  0  0  0  0  0  0
   -1.9109   -1.0632    1.0485 C   0  0  0  0  0  0  0  0  0  0  0  0
   -2.3912   -3.4888    2.4179 H   0  0  0  0  0  0  0  0  0  0  0  0
   -1.7171   -4.4858    1.1250 H   0  0  0  0  0  0  0  0  0  0  0  0
   -3.2148   -3.5769    0.8722 H   0  0  0  0  0  0  0  0  0  0  0  0
    0.1928   -3.4771    0.0192 H   0  0  0  0  0  0  0  0  0  0  0  0
    1.4177   -1.4584   -0.7059 H   0  0  0  0  0  0  0  0  0  0  0  0
    1.7779    0.2420   -1.9538 H   0  0  0  0  0  0  0  0  0  0  0  0
    2.9002    2.3147   -2.6108 H   0  0  0  0  0  0  0  0  0  0  0  0
    0.7539    4.4507    0.4223 H   0  0  0  0  0  0  0  0  0  0  0  0
   -0.3981    2.3629    1.0732 H   0  0  0  0  0  0  0  0  0  0  0  0
   -2.8665   -0.9057    1.5443 H   0  0  0  0  0  0  0  0  0  0  0  0
  1  2  1  0
  2  3  2  0
  3  4  1  0
  4  5  2  0
  5  6  1  0
  6  7  1  0
  7  8  2  0
  8  9  1  0
  9 10  1  0
  9 11  2  0
 11 12  1  0
  5 13  1  0
 13 14  2  0
 14  2  1  0
 12  6  2  0
  1 15  1  0
  1 16  1  0
  1 17  1  0
  3 18  1  0
  4 19  1  0
  7 20  1  0
  8 21  1  0
 11 22  1  0
 12 23  1  0
 14 24  1  0
M  END
$$$$

     RDKit          3D

 24 25  0  0  0  0  0  0  0  0999 V2000
    3.1764    2.6753    1.4745 C   0  0  0  0  0  0  0  0  0  0  0  0
    2.1208    1.7735    0.9288 C   0  0  0  0  0  0  0  0  0  0  0  0
    2.2752    1.0561   -0.2611 C   0  0  0  0  0  0  0  0  0  0  0  0
    1.2734    0.2238   -0.7086 C   0  0  0  0  0  0  0  0  0  0  0  0
    0.0987    0.0966    0.0397 C   0  0  0  0  0  0  0  0  0  0  0  0
   -1.0211   -0.7971   -0.3823 C   0  0  0  0  0  0  0  0  0  0  0  0
   -0.9722   -1.5597   -1.5591 C   0  0  0  0  0  0  0  0  0  0  0  0
   -2.0275   -2.3797   -1.9360 C   0  0  0  0  0  0  0  0  0  0  0  0
   -3.1438   -2.4504   -1.1293 C   0  0  0  0  0  0  0  0  0  0  0  0
   -4.4723   -3.4806   -1.5942 Cl  0  0  0  0  0  0  0  0  0  0  0  0
   -3.2283   -1.7183    0.0458 C   0  0  0  0  0  0  0  0  0  0  0  0
   -2.1717   -0.8940    0.4110 C   0  0  0  0  0  0  0  0  0  0  0  0
   -0.0612    0.7845    1.1815 N   0  0  0  0  0  0  0  0  0  0  0  0
    0.9033    1.5853    1.6003 C   0  0  0  0  0  0  0  0  0  0  0  0
    3.9743    2.8407    0.7460 H   0  0  0  0  0  0  0  0  0  0  0  0
    2.7619    3.6405    1.7611 H   0  0  0  0  0  0  0  0  0  0  0  0
    3.6256    2.2457    2.3663 H   0  0  0  0  0  0  0  0  0  0  0  0
    3.1819    1.1588   -0.8332 H   0  0  0  0  0  0  0  0  0  0  0  0
    1.3949   -0.3263   -1.6301 H   0  0  0  0  0  0  0  0  0  0  0  0
   -0.1041   -1.5244   -2.1994 H   0  0  0  0  0  0  0  0  0  0  0  0
   -1.9613   -2.9570   -2.8464 H   0  0  0  0  0  0  0  0  0  0  0  0
   -4.1077   -1.7887    0.6700 H   0  0  0  0  0  0  0  0  0  0  0  0
   -2.2367   -0.3257    1.3259 H   0  0  0  0  0  0  0  0  0  0  0  0
    0.7213    2.1212    2.5287 H   0  0  0  0  0  0  0  0  0  0  0  0
  1  2  1  0
  2  3  2  0
  3  4  1  0
  4  5  2  0
  5  6  1  0
  6  7  1  0
  7  8  2  0
  8  9  1  0
  9 10  1  0
  9 11  2  0
 11 12  1  0
  5 13  1  0
 13 14  2  0
 14  2  1  0
 12  6  2  0
  1 15  1  0
  1 16  1  0
  1 17  1  0
  3 18  1  0
  4 19  1  0
  7 20  1  0
  8 21  1  0
 11 22  1  0
 12 23  1  0
 14 24  1  0
M  END
$$$$
