
     RDKit          3D

 24 25  0  0  0  0  0  0  0  0999 V2000
    0.5858   -1.6894   -4.0288 C   0  0  0  0  0  0  0  0  0  0  0  0
    0.3681   -1.1510   -2.6556 C   0  0  0  0  0  0  0  0  0  0  0  0
   -0.2170   -1.8971   -1.6305 C   0  0  0  0  0  0  0  0  0  0  0  0
   -0.3845   -1.3483   -0.3787 C   0  0  0  0  0  0  0  0  0  0  0  0
    0.0370   -0.0385   -0.1445 C   0  0  0  0  0  0  0  0  0  0  0  0
   -0.1192    0.5981    1.1945 C   0  0  0  0  0  0  0  0  0  0  0  0
   -0.1919   -0.1628    2.3702 C   0  0  0  0  0  0  0  0  0  0  0  0
   -0.3598    0.4417    3.6116 C   0  0  0  0  0  0  0  0  0  0  0  0
   -0.4534    1.8155    3.6834 C   0  0  0  0  0  0  0  0  0  0  0  0
   -0.7044    2.6430    5.3765 Br  0  0  0  0  0  0  0  0  0  0  0  0
   -0.3698    2.5976    2.5425 C   0  0  0  0  0  0  0  0  0  0  0  0
   -0.1965    1.9881    1.3051 C   0  0  0  0  0  0  0  0  0  0  0  0
    0.5846    0.6945   -1.1203 N   0  0  0  0  0  0  0  0  0  0  0  0
    0.7511    0.1559   -2.3170 C   0  0  0  0  0  0  0  0  0  0  0  0
    1.6462   -1.7236   -4.2685 H   0  0  0  0  0  0  0  0  0  0  0  0
    0.1770   -2.6995   -4.1291 H   0  0  0  0  0  0  0  0  0  0  0  0
    0.1041   -1.0542   -4.7755 H   0  0  0  0  0  0  0  0  0  0  0  0
   -0.5491   -2.9036   -1.8275 H   0  0  0  0  0  0  0  0  0  0  0  0
   -0.8475   -1.9142    0.4168 H   0  0  0  0  0  0  0  0  0  0  0  0
   -0.1069   -1.2404    2.3247 H   0  0  0  0  0  0  0  0  0  0  0  0
   -0.4086   -0.1683    4.5026 H   0  0  0  0  0  0  0  0  0  0  0  0
   -0.4459    3.6736    2.6090 H   0  0  0  0  0  0  0  0  0  0  0  0
   -0.1141    2.5984    0.4124 H   0  0  0  0  0  0  0  0  0  0  0  0
    1.2149    0.7845   -3.0733 H   0  0  0  0  0  0  0  0  0  0  0  0
  1  2  1  0
  2  3  2  0
  3  4  1  0
  4  5  2  0
  5  6  1  0
  6  7  1  0
  7  8  2  0
  8  9  1  0
  9 10  1  0
  9 11  2  0
 11 12  1  0
  5 13  1  0
 13 14  2  0
 14  2  1  0
 12  6  2  0
  1 15  1  0
  1 16  1  0
  1 17  1  0
  3 18  1  0
  4 19  1  0
  7 20  1  0
  8 21  1  0
 11 22  1  0
 12 23  1  0
 14 24  1  0
M  END
$$$$

     RDKit          3D

 24 25  0  0  0  0  0  0  0  0999 V2000
   -1.7986    1.7818   -3.6058 C   0  0  0  0  0  0  0  0  0  0  0  0
   -1.2246    1.1617   -2.3773 C   0  0  0  0  0  0  0  0  0  0  0  0
   -1.8484    0.1134   -1.6961 C   0  0  0  0  0  0  0  0  0  0  0  0
   -1.2674   -0.4274   -0.5721 C   0  0  0  0  0  0  0  0  0  0  0  0
   -0.0444    0.0769   -0.1236 C   0  0  0  0  0  0  0  0  0  0  0  0
    0.6309   -0.4805    1.0807 C   0  0  0  0  0  0  0  0  0  0  0  0
    1.4973    0.3169    1.8325 C   0  0  0  0  0  0  0  0  0  0  0  0
    2.1248   -0.1847    2.9723 C   0  0  0  0  0  0  0  0  0  0  0  0
    1.8870   -1.4933    3.3540 C   0  0  0  0  0  0  0  0  0  0  0  0
    2.7354   -2.1813    4.9105 Br  0  0  0  0  0  0  0  0  0  0  0  0
    1.0451   -2.3095    2.6237 C   0  0  0  0  0  0  0  0  0  0  0  0
    0.4265   -1.8066    1.4915 C   0  0  0  0  0  0  0  0  0  0  0  0
    0.5597    1.0843   -0.7606 N   0  0  0  0  0  0  0  0  0  0  0  0
   -0.0025    1.5978   -1.8406 C   0  0  0  0  0  0  0  0  0  0  0  0
   -1.2128    1.5074   -4.4806 H   0  0  0  0  0  0  0  0  0  0  0  0
   -2.8293    1.4557   -3.7702 H   0  0  0  0  0  0  0  0  0  0  0  0
   -1.7889    2.8720   -3.5385 H   0  0  0  0  0  0  0  0  0  0  0  0
   -2.7946   -0.2665   -2.0525 H   0  0  0  0  0  0  0  0  0  0  0  0
   -1.7487   -1.2250   -0.0252 H   0  0  0  0  0  0  0  0  0  0  0  0
    1.6889    1.3398    1.5262 H   0  0  0  0  0  0  0  0  0  0  0  0
    2.7840    0.4487    3.5494 H   0  0  0  0  0  0  0  0  0  0  0  0
    0.8688   -3.3343    2.9217 H   0  0  0  0  0  0  0  0  0  0  0  0
   -0.2214   -2.4543    0.9124 H   0  0  0  0  0  0  0  0  0  0  0  0
    0.5332    2.4068   -2.3316 H   0  0  0  0  0  0  0  0  0  0  0  0
  1  2  1  0
  2  3  2  0
  3  4  1  0
  4  5  2  0
  5  6  1  0
  6  7  1  0
  7  8  2  0
  8  9  1  0
  9 10  1  0
  9 11  2  0
 11 12  1  0
  5 13  1  0
 13 14  2  0
 14  2  1  0
 12  6  2  0
  1 15  1  0
  1 16  1  0
  1 17  1  0
  3 18  1  0
  4 19  1  0
  7 20  1  0
  8 21  1  0
 11 22  1  0
 12 23  1  0
 14 24  1  0
M  END
$$$$

     RDKit          3D

 24 25  0  0  0  0  0  0  0  0999 V2000
    0.2436    4.3630   -0.6008 C   0  0  0  0  0  0  0  0  0  0  0  0
    0.2075    2.8866   -0.3915 C   0  0  0  0  0  0  0  0  0  0  0  0
    1.2253    2.1951    0.2711 C   0  0  0  0  0  0  0  0  0  0  0  0
    1.1310    0.8335    0.4598 C   0  0  0  0  0  0  0  0  0  0  0  0
    0.0136    0.1483   -0.0263 C   0  0  0  0  0  0  0  0  0  0  0  0
   -0.1486   -1.3265    0.1396 C   0  0  0  0  0  0  0  0  0  0  0  0
    0.8667   -2.1415    0.6599 C   0  0  0  0  0  0  0  0  0  0  0  0
    0.6922   -3.5124    0.8072 C   0  0  0  0  0  0  0  0  0  0  0  0
   -0.5043   -4.0825    0.4303 C   0  0  0  0  0  0  0  0  0  0  0  0
   -0.7453   -5.9586    0.6300 Br  0  0  0  0  0  0  0  0  0  0  0  0
   -1.5315   -3.3110   -0.0870 C   0  0  0  0  0  0  0  0  0  0  0  0
   -1.3495   -1.9414   -0.2352 C   0  0  0  0  0  0  0  0  0  0  0  0
   -0.9683    0.8007   -0.6643 N   0  0  0  0  0  0  0  0  0  0  0  0
   -0.8726    2.1075   -0.8351 C   0  0  0  0  0  0  0  0  0  0  0  0
   -0.4078    4.8651    0.1110 H   0  0  0  0  0  0  0  0  0  0  0  0
   -0.0989    4.6273   -1.6026 H   0  0  0  0  0  0  0  0  0  0  0  0
    1.2523    4.7590   -0.4628 H   0  0  0  0  0  0  0  0  0  0  0  0
    2.0893    2.7317    0.6303 H   0  0  0  0  0  0  0  0  0  0  0  0
    1.9086    0.2994    0.9852 H   0  0  0  0  0  0  0  0  0  0  0  0
    1.8165   -1.7134    0.9518 H   0  0  0  0  0  0  0  0  0  0  0  0
    1.4924   -4.1114    1.2115 H   0  0  0  0  0  0  0  0  0  0  0  0
   -2.4673   -3.7672   -0.3775 H   0  0  0  0  0  0  0  0  0  0  0  0
   -2.1497   -1.3392   -0.6453 H   0  0  0  0  0  0  0  0  0  0  0  0
   -1.6955    2.5880   -1.3593 H   0  0  0  0  0  0  0  0  0  0  0  0
  1  2  1  0
  2  3  2  0
  3  4  1  0
  4  5  2  0
  5  6  1  0
  6  7  1  0
  7  8  2  0
  8  9  1  0
  9 10  1  0
  9 11  2  0
 11 12  1  0
  5 13  1  0
 13 14  2  0
 14  2  1  0
 12  6  2  0
  1 15  1  0
  1 16  1  0
  1 17  1  0
  3 18  1  0
  4 19  1  0
  7 20  1  0
  8 21  1  0
 11 22  1  0
 12 23  1  0
 14 24  1  0
M  END
$$$$

     RDKit          3D

 24 25  0  0  0  0  0  0  0  0999 V2000
    0.7640   -3.9773    1.7402 C   0  0  0  0  0  0  0  0  0  0  0  0
    0.4624   -2.6313    1.1759 C   0  0  0  0  0  0  0  0  0  0  0  0
   -0.5725   -1.8206    1.6510 C   0  0  0  0  0  0  0  0  0  0  0  0
   -0.7932   -0.5813    1.0949 C   0  0  0  0  0  0  0  0  0  0  0  0
    0.0205   -0.1444    0.0457 C   0  0  0  0  0  0  0  0  0  0  0  0
   -0.1729    1.1867   -0.6014 C   0  0  0  0  0  0  0  0  0  0  0  0
   -1.3407    1.9423   -0.4233 C   0  0  0  0  0  0  0  0  0  0  0  0
   -1.4903    3.1928   -1.0134 C   0  0  0  0  0  0  0  0  0  0  0  0
   -0.4714    3.6934   -1.7944 C   0  0  0  0  0  0  0  0  0  0  0  0
   -0.6600    5.4104   -2.5879 Br  0  0  0  0  0  0  0  0  0  0  0  0
    0.6897    2.9706   -2.0064 C   0  0  0  0  0  0  0  0  0  0  0  0
    0.8312    1.7190   -1.4181 C   0  0  0  0  0  0  0  0  0  0  0  0
    1.0215   -0.9094   -0.4115 N   0  0  0  0  0  0  0  0  0  0  0  0
    1.2286   -2.0955    0.1287 C   0  0  0  0  0  0  0  0  0  0  0  0
   -0.0493   -4.3341    2.3765 H   0  0  0  0  0  0  0  0  0  0  0  0
    0.9291   -4.7046    0.9444 H   0  0  0  0  0  0  0  0  0  0  0  0
    1.6697   -3.9481    2.3403 H   0  0  0  0  0  0  0  0  0  0  0  0
   -1.1976   -2.1675    2.4597 H   0  0  0  0  0  0  0  0  0  0  0  0
   -1.5823    0.0547    1.4699 H   0  0  0  0  0  0  0  0  0  0  0  0
   -2.1550    1.5519    0.1732 H   0  0  0  0  0  0  0  0  0  0  0  0
   -2.3980    3.7538   -0.8542 H   0  0  0  0  0  0  0  0  0  0  0  0
    1.4806    3.3715   -2.6237 H   0  0  0  0  0  0  0  0  0  0  0  0
    1.7334    1.1460   -1.5885 H   0  0  0  0  0  0  0  0  0  0  0  0
    2.0523   -2.6793   -0.2774 H   0  0  0  0  0  0  0  0  0  0  0  0
  1  2  1  0
  2  3  2  0
  3  4  1  0
  4  5  2  0
  5  6  1  0
  6  7  1  0
  7  8  2  0
  8  9  1  0
  9 10  1  0
  9 11  2  0
 11 12  1  0
  5 13  1  0
 13 14  2  0
 14  2  1  0
 12  6  2  0
  1 15  1  0
  1 16  1  0
  1 17  1  0
  3 18  1  0
  4 19  1  0
  7 20  1  0
  8 21  1  0
 11 22  1  0
 12 23  1  0
 14 24  1  0
M  END
$$$$

     RDKit          3D

 24 25  0  0  0  0  0  0  0  0999 V2000
    4.3371    0.7894   -0.1510 C   0  0  0  0  0  0  0  0  0  0  0  0
    2.8799    0.4765   -0.1069 C   0  0  0  0  0  0  0  0  0  0  0  0
    2.3831   -0.7368    0.3766 C   0  0  0  0  0  0  0  0  0  0  0  0
    1.0261   -0.9632    0.4236 C   0  0  0  0  0  0  0  0  0  0  0  0
    0.1480    0.0316   -0.0155 C   0  0  0  0  0  0  0  0  0  0  0  0
   -1.3333   -0.1511    0.0195 C   0  0  0  0  0  0  0  0  0  0  0  0
   -1.9392   -1.2056    0.7172 C   0  0  0  0  0  0  0  0  0  0  0  0
   -3.3198   -1.3707    0.7242 C   0  0  0  0  0  0  0  0  0  0  0  0
   -4.1087   -0.4707    0.0403 C   0  0  0  0  0  0  0  0  0  0  0  0
   -5.9985   -0.6906    0.0406 Br  0  0  0  0  0  0  0  0  0  0  0  0
   -3.5478    0.5912   -0.6482 C   0  0  0  0  0  0  0  0  0  0  0  0
   -2.1672    0.7491   -0.6543 C   0  0  0  0  0  0  0  0  0  0  0  0
    0.6121    1.1930   -0.4950 N   0  0  0  0  0  0  0  0  0  0  0  0
    1.9171    1.4027   -0.5378 C   0  0  0  0  0  0  0  0  0  0  0  0
    4.9403   -0.1174   -0.0589 H   0  0  0  0  0  0  0  0  0  0  0  0
    4.6026    1.2940   -1.0816 H   0  0  0  0  0  0  0  0  0  0  0  0
    4.6099    1.4537    0.6669 H   0  0  0  0  0  0  0  0  0  0  0  0
    3.0669   -1.5015    0.7101 H   0  0  0  0  0  0  0  0  0  0  0  0
    0.6427   -1.9031    0.7925 H   0  0  0  0  0  0  0  0  0  0  0  0
   -1.3362   -1.9137    1.2691 H   0  0  0  0  0  0  0  0  0  0  0  0
   -3.7543   -2.1932    1.2698 H   0  0  0  0  0  0  0  0  0  0  0  0
   -4.1748    1.2924   -1.1792 H   0  0  0  0  0  0  0  0  0  0  0  0
   -1.7265    1.5845   -1.1835 H   0  0  0  0  0  0  0  0  0  0  0  0
    2.2402    2.3595   -0.9385 H   0  0  0  0  0  0  0  0  0  0  0  0
  1  2  1  0
  2  3  2  0
  3  4  1  0
  4  5  2  0
  5  6  1  0
  6  7  1  0
  7  8  2  0
  8  9  1  0
  9 10  1  0
  9 11  2  0
 11 12  1  0
  5 13  1  0
 13 14  2  0
 14  2  1  0
 12  6  2  0
  1 15  1  0
  1 16  1  0
  1 17  1  0
  3 18  1  0
  4 19  1  0
  7 20  1  0
  8 21  1  0
 11 22  1  0
 12 23  1  0
 14 24  1  0
M  END
$$$$

     RDKit          3D

 24 25  0  0  0  0  0  0  0  0999 V2000
    2.5734    3.5654   -0.2790 C   0  0  0  0  0  0  0  0  0  0  0  0
    1.6894    2.3721   -0.1473 C   0  0  0  0  0  0  0  0  0  0  0  0
    1.3489    1.8170    1.0885 C   0  0  0  0  0  0  0  0  0  0  0  0
    0.5439    0.7028    1.1518 C   0  0  0  0  0  0  0  0  0  0  0  0
    0.0785    0.1269   -0.0327 C   0  0  0  0  0  0  0  0  0  0  0  0
   -0.7766   -1.0925   -0.0214 C   0  0  0  0  0  0  0  0  0  0  0  0
   -0.7109   -2.0271    1.0205 C   0  0  0  0  0  0  0  0  0  0  0  0
   -1.5292   -3.1518    1.0331 C   0  0  0  0  0  0  0  0  0  0  0  0
   -2.4197   -3.3456   -0.0029 C   0  0  0  0  0  0  0  0  0  0  0  0
   -3.5571   -4.8686    0.0124 Br  0  0  0  0  0  0  0  0  0  0  0  0
   -2.5041   -2.4482   -1.0526 C   0  0  0  0  0  0  0  0  0  0  0  0
   -1.6701   -1.3364   -1.0673 C   0  0  0  0  0  0  0  0  0  0  0  0
    0.3816    0.6575   -1.2219 N   0  0  0  0  0  0  0  0  0  0  0  0
    1.1530    1.7294   -1.2743 C   0  0  0  0  0  0  0  0  0  0  0  0
    3.5342    3.2874   -0.7117 H   0  0  0  0  0  0  0  0  0  0  0  0
    2.1281    4.3110   -0.9373 H   0  0  0  0  0  0  0  0  0  0  0  0
    2.7617    4.0282    0.6939 H   0  0  0  0  0  0  0  0  0  0  0  0
    1.7209    2.2684    1.9959 H   0  0  0  0  0  0  0  0  0  0  0  0
    0.2566    0.2795    2.1042 H   0  0  0  0  0  0  0  0  0  0  0  0
   -0.0027   -1.8857    1.8268 H   0  0  0  0  0  0  0  0  0  0  0  0
   -1.4563   -3.8575    1.8469 H   0  0  0  0  0  0  0  0  0  0  0  0
   -3.2052   -2.6088   -1.8597 H   0  0  0  0  0  0  0  0  0  0  0  0
   -1.7154   -0.6445   -1.9013 H   0  0  0  0  0  0  0  0  0  0  0  0
    1.3770    2.1210   -2.2647 H   0  0  0  0  0  0  0  0  0  0  0  0
  1  2  1  0
  2  3  2  0
  3  4  1  0
  4  5  2  0
  5  6  1  0
  6  7  1  0
  7  8  2  0
  8  9  1  0
  9 10  1  0
  9 11  2  0
 11 12  1  0
  5 13  1  0
 13 14  2  0
 14  2  1  0
 12  6  2  0
  1 15  1  0
  1 16  1  0
  1 17  1  0
  3 18  1  0
  4 19  1  0
  7 20  1  0
  8 21  1  0
 11 22  1  0
 12 23  1  0
 14 24  1  0
M  END
$$$$

     RDKit          3D

 24 25  0  0  0  0  0  0  0  0999 V2000
    2.0013   -1.8968    3.4390 C   0  0  0  0  0  0  0  0  0  0  0  0
    1.3497   -1.2250    2.2774 C   0  0  0  0  0  0  0  0  0  0  0  0
    1.8001   -0.0065    1.7598 C   0  0  0  0  0  0  0  0  0  0  0  0
    1.1650    0.5678    0.6825 C   0  0  0  0  0  0  0  0  0  0  0  0
    0.0644   -0.0776    0.1129 C   0  0  0  0  0  0  0  0  0  0  0  0
   -0.6709    0.5056   -1.0450 C   0  0  0  0  0  0  0  0  0  0  0  0
   -0.6087    1.8716   -1.3511 C   0  0  0  0  0  0  0  0  0  0  0  0
   -1.3027    2.3998   -2.4344 C   0  0  0  0  0  0  0  0  0  0  0  0
   -2.0632    1.5598   -3.2211 C   0  0  0  0  0  0  0  0  0  0  0  0
   -3.0056    2.2749   -4.7092 Br  0  0  0  0  0  0  0  0  0  0  0  0
   -2.1507    0.2059   -2.9470 C   0  0  0  0  0  0  0  0  0  0  0  0
   -1.4588   -0.3149   -1.8585 C   0  0  0  0  0  0  0  0  0  0  0  0
   -0.3679   -1.2509    0.5889 N   0  0  0  0  0  0  0  0  0  0  0  0
    0.2468   -1.7969    1.6234 C   0  0  0  0  0  0  0  0  0  0  0  0
    2.6424   -1.2037    3.9891 H   0  0  0  0  0  0  0  0  0  0  0  0
    2.6226   -2.7241    3.1040 H   0  0  0  0  0  0  0  0  0  0  0  0
    1.2558   -2.3033    4.1246 H   0  0  0  0  0  0  0  0  0  0  0  0
    2.6513    0.4852    2.2070 H   0  0  0  0  0  0  0  0  0  0  0  0
    1.5210    1.4985    0.2627 H   0  0  0  0  0  0  0  0  0  0  0  0
   -0.0262    2.5412   -0.7311 H   0  0  0  0  0  0  0  0  0  0  0  0
   -1.2408    3.4567   -2.6437 H   0  0  0  0  0  0  0  0  0  0  0  0
   -2.7511   -0.4452   -3.5664 H   0  0  0  0  0  0  0  0  0  0  0  0
   -1.5258   -1.3738   -1.6350 H   0  0  0  0  0  0  0  0  0  0  0  0
   -0.1483   -2.7484    1.9711 H   0  0  0  0  0  0  0  0  0  0  0  0
  1  2  1  0
  2  3  2  0
  3  4  1  0
  4  5  2  0
  5  6  1  0
  6  7  1  0
  7  8  2  0
  8  9  1  0
  9 10  1  0
  9 11  2  0
 11 12  1  0
  5 13  1  0
 13 14  2  0
 14  2  1  0
 12  6  2  0
  1 15  1  0
  1 16  1  0
  1 17  1  0
  3 18  1  0
  4 19  1  0
  7 20  1  0
  8 21  1  0
 11 22  1  0
 12 23  1  0
 14 24  1  0
M  END
$$$$

     RDKit          3D

 24 25  0  0  0  0  0  0  0  0999 V2000
    0.7699   -3.8100    2.0761 C   0  0  0  0  0  0  0  0  0  0  0  0
    0.4875   -2.5022    1.4193 C   0  0  0  0  0  0  0  0  0  0  0  0
    0.1362   -1.3496    2.1271 C   0  0  0  0  0  0  0  0  0  0  0  0
   -0.1070   -0.1700    1.4584 C   0  0  0  0  0  0  0  0  0  0  0  0
    0.0067   -0.1371    0.0660 C   0  0  0  0  0  0  0  0  0  0  0  0
   -0.2208    1.1146   -0.7114 C   0  0  0  0  0  0  0  0  0  0  0  0
   -0.0913    2.3820   -0.1286 C   0  0  0  0  0  0  0  0  0  0  0  0
   -0.3070    3.5406   -0.8677 C   0  0  0  0  0  0  0  0  0  0  0  0
   -0.6405    3.4366   -2.2025 C   0  0  0  0  0  0  0  0  0  0  0  0
   -0.9337    5.0173   -3.2205 Br  0  0  0  0  0  0  0  0  0  0  0  0
   -0.7652    2.2011   -2.8135 C   0  0  0  0  0  0  0  0  0  0  0  0
   -0.5578    1.0466   -2.0671 C   0  0  0  0  0  0  0  0  0  0  0  0
    0.3273   -1.2374   -0.6242 N   0  0  0  0  0  0  0  0  0  0  0  0
    0.5651   -2.3623    0.0244 C   0  0  0  0  0  0  0  0  0  0  0  0
    0.1258   -4.5942    1.6737 H   0  0  0  0  0  0  0  0  0  0  0  0
    0.6093   -3.7542    3.1563 H   0  0  0  0  0  0  0  0  0  0  0  0
    1.7983   -4.1174    1.8970 H   0  0  0  0  0  0  0  0  0  0  0  0
    0.0532   -1.3847    3.2027 H   0  0  0  0  0  0  0  0  0  0  0  0
   -0.3962    0.7219    1.9968 H   0  0  0  0  0  0  0  0  0  0  0  0
    0.1864    2.4728    0.9130 H   0  0  0  0  0  0  0  0  0  0  0  0
   -0.2031    4.5036   -0.3921 H   0  0  0  0  0  0  0  0  0  0  0  0
   -1.0258    2.1285   -3.8600 H   0  0  0  0  0  0  0  0  0  0  0  0
   -0.6532    0.0771   -2.5418 H   0  0  0  0  0  0  0  0  0  0  0  0
    0.8360   -3.2237   -0.5813 H   0  0  0  0  0  0  0  0  0  0  0  0
  1  2  1  0
  2  3  2  0
  3  4  1  0
  4  5  2  0
  5  6  1  0
  6  7  1  0
  7  8  2  0
  8  9  1  0
  9 10  1  0
  9 11  2  0
 11 12  1  0
  5 13  1  0
 13 14  2  0
 14  2  1  0
 12  6  2  0
  1 15  1  0
  1 16  1  0
  1 17  1  0
  3 18  1  0
  4 19  1  0
  7 20  1  0
  8 21  1  0
 11 22  1  0
 12 23  1  0
 14 24  1  0
M  END
$$$$

     RDKit          3D

 24 25  0  0  0  0  0  0  0  0999 V2000
   -2.9598    2.7883   -1.7019 C   0  0  0  0  0  0  0  0  0  0  0  0
   -1.9333    1.8737   -1.1251 C   0  0  0  0  0  0  0  0  0  0  0  0
   -0.8088    2.3492   -0.4397 C   0  0  0  0  0  0  0  0  0  0  0  0
    0.1130    1.4676    0.0782 C   0  0  0  0  0  0  0  0  0  0  0  0
   -0.0922    0.0927   -0.0775 C   0  0  0  0  0  0  0  0  0  0  0  0
    0.8511   -0.9147    0.4874 C   0  0  0  0  0  0  0  0  0  0  0  0
    1.7501   -0.6031    1.5158 C   0  0  0  0  0  0  0  0  0  0  0  0
    2.6239   -1.5598    2.0254 C   0  0  0  0  0  0  0  0  0  0  0  0
    2.5937   -2.8401    1.5112 C   0  0  0  0  0  0  0  0  0  0  0  0
    3.7849   -4.1532    2.2010 Br  0  0  0  0  0  0  0  0  0  0  0  0
    1.7105   -3.1859    0.5039 C   0  0  0  0  0  0  0  0  0  0  0  0
    0.8440   -2.2250   -0.0028 C   0  0  0  0  0  0  0  0  0  0  0  0
   -1.1498   -0.3740   -0.7490 N   0  0  0  0  0  0  0  0  0  0  0  0
   -2.0311    0.4799   -1.2444 C   0  0  0  0  0  0  0  0  0  0  0  0
   -3.2938    3.5111   -0.9577 H   0  0  0  0  0  0  0  0  0  0  0  0
   -2.5441    3.3573   -2.5303 H   0  0  0  0  0  0  0  0  0  0  0  0
   -3.8295    2.2340   -2.0672 H   0  0  0  0  0  0  0  0  0  0  0  0
   -0.6680    3.4146   -0.3255 H   0  0  0  0  0  0  0  0  0  0  0  0
    0.9903    1.8261    0.5975 H   0  0  0  0  0  0  0  0  0  0  0  0
    1.7716    0.3953    1.9355 H   0  0  0  0  0  0  0  0  0  0  0  0
    3.3083   -1.2922    2.8157 H   0  0  0  0  0  0  0  0  0  0  0  0
    1.6954   -4.1920    0.1081 H   0  0  0  0  0  0  0  0  0  0  0  0
    0.1476   -2.4951   -0.7873 H   0  0  0  0  0  0  0  0  0  0  0  0
   -2.8739    0.0454   -1.7714 H   0  0  0  0  0  0  0  0  0  0  0  0
  1  2  1  0
  2  3  2  0
  3  4  1  0
  4  5  2  0
  5  6  1  0
  6  7  1  0
  7  8  2  0
  8  9  1  0
  9 10  1  0
  9 11  2  0
 11 12  1  0
  5 13  1  0
 13 14  2  0
 14  2  1  0
 12  6  2  0
  1 15  1  0
  1 16  1  0
  1 17  1  0
  3 18  1  0
  4 19  1  0
  7 20  1  0
  8 21  1  0
 11 22  1  0
 12 23  1  0
 14 24  1  0
M  END
$$$$

     RDKit          3D

 24 25  0  0  0  0  0  0  0  0999 V2000
   -3.0570    2.7851    1.5352 C   0  0  0  0  0  0  0  0  0  0  0  0
   -2.0308    1.8518    0.9885 C   0  0  0  0  0  0  0  0  0  0  0  0
   -1.5428    1.9732   -0.3174 C   0  0  0  0  0  0  0  0  0  0  0  0
   -0.5916    1.0966   -0.7868 C   0  0  0  0  0  0  0  0  0  0  0  0
   -0.1103    0.0879    0.0543 C   0  0  0  0  0  0  0  0  0  0  0  0
    0.9293   -0.8866   -0.3904 C   0  0  0  0  0  0  0  0  0  0  0  0
    1.6764   -0.7082   -1.5639 C   0  0  0  0  0  0  0  0  0  0  0  0
    2.6432   -1.6297   -1.9524 C   0  0  0  0  0  0  0  0  0  0  0  0
    2.8679   -2.7416   -1.1683 C   0  0  0  0  0  0  0  0  0  0  0  0
    4.1952   -3.9999   -1.6938 Br  0  0  0  0  0  0  0  0  0  0  0  0
    2.1516   -2.9511   -0.0040 C   0  0  0  0  0  0  0  0  0  0  0  0
    1.1889   -2.0259    0.3810 C   0  0  0  0  0  0  0  0  0  0  0  0
   -0.5737   -0.0432    1.3030 N   0  0  0  0  0  0  0  0  0  0  0  0
   -1.4868    0.8052    1.7481 C   0  0  0  0  0  0  0  0  0  0  0  0
   -3.4551    2.4369    2.4918 H   0  0  0  0  0  0  0  0  0  0  0  0
   -3.8838    2.8996    0.8347 H   0  0  0  0  0  0  0  0  0  0  0  0
   -2.6356    3.7765    1.6794 H   0  0  0  0  0  0  0  0  0  0  0  0
   -1.9190    2.7599   -0.9544 H   0  0  0  0  0  0  0  0  0  0  0  0
   -0.2243    1.1802   -1.8007 H   0  0  0  0  0  0  0  0  0  0  0  0
    1.5094    0.1567   -2.1927 H   0  0  0  0  0  0  0  0  0  0  0  0
    3.2076   -1.4636   -2.8569 H   0  0  0  0  0  0  0  0  0  0  0  0
    2.3278   -3.8296    0.5992 H   0  0  0  0  0  0  0  0  0  0  0  0
    0.6356   -2.1855    1.2978 H   0  0  0  0  0  0  0  0  0  0  0  0
   -1.8221    0.6553    2.7686 H   0  0  0  0  0  0  0  0  0  0  0  0
  1  2  1  0
  2  3  2  0
  3  4  1  0
  4  5  2  0
  5  6  1  0
  6  7  1  0
  7  8  2  0
  8  9  1  0
  9 10  1  0
  9 11  2  0
 11 12  1  0
  5 13  1  0
 13 14  2  0
 14  2  1  0
 12  6  2  0
  1 15  1  0
  1 16  1  0
  1 17  1  0
  3 18  1  0
  4 19  1  0
  7 20  1  0
  8 21  1  0
 11 22  1  0
 12 23  1  0
 14 24  1  0
M  END
$$$$

     RDKit          3D

 24 25  0  0  0  0  0  0  0  0999 V2000
    0.7837   -4.0279    1.6071 C   0  0  0  0  0  0  0  0  0  0  0  0
    0.5100   -2.6776    1.0356 C   0  0  0  0  0  0  0  0  0  0  0  0
    0.6510   -2.4036   -0.3302 C   0  0  0  0  0  0  0  0  0  0  0  0
    0.3954   -1.1415   -0.8123 C   0  0  0  0  0  0  0  0  0  0  0  0
   -0.0010   -0.1360    0.0736 C   0  0  0  0  0  0  0  0  0  0  0  0
   -0.2630    1.2535   -0.3946 C   0  0  0  0  0  0  0  0  0  0  0  0
   -1.1354    2.0831    0.3140 C   0  0  0  0  0  0  0  0  0  0  0  0
   -1.3947    3.3863   -0.1120 C   0  0  0  0  0  0  0  0  0  0  0  0
   -0.7646    3.8607   -1.2477 C   0  0  0  0  0  0  0  0  0  0  0  0
   -1.1047    5.6395   -1.8252 Br  0  0  0  0  0  0  0  0  0  0  0  0
    0.1092    3.0677   -1.9645 C   0  0  0  0  0  0  0  0  0  0  0  0
    0.3601    1.7742   -1.5383 C   0  0  0  0  0  0  0  0  0  0  0  0
   -0.1618   -0.3856    1.3747 N   0  0  0  0  0  0  0  0  0  0  0  0
    0.0867   -1.6037    1.8339 C   0  0  0  0  0  0  0  0  0  0  0  0
    1.7152   -4.4341    1.2116 H   0  0  0  0  0  0  0  0  0  0  0  0
   -0.0032   -4.7263    1.3347 H   0  0  0  0  0  0  0  0  0  0  0  0
    0.8549   -3.9930    2.6995 H   0  0  0  0  0  0  0  0  0  0  0  0
    0.9633   -3.1915   -1.0030 H   0  0  0  0  0  0  0  0  0  0  0  0
    0.4853   -0.9188   -1.8663 H   0  0  0  0  0  0  0  0  0  0  0  0
   -1.6241    1.7057    1.2063 H   0  0  0  0  0  0  0  0  0  0  0  0
   -2.0764    4.0130    0.4441 H   0  0  0  0  0  0  0  0  0  0  0  0
    0.6000    3.4439   -2.8502 H   0  0  0  0  0  0  0  0  0  0  0  0
    1.0641    1.1636   -2.0911 H   0  0  0  0  0  0  0  0  0  0  0  0
   -0.0502   -1.7519    2.9006 H   0  0  0  0  0  0  0  0  0  0  0  0
  1  2  1  0
  2  3  2  0
  3  4  1  0
  4  5  2  0
  5  6  1  0
  6  7  1  0
  7  8  2  0
  8  9  1  0
  9 10  1  0
  9 11  2  0
 11 12  1  0
  5 13  1  0
 13 14  2  0
 14  2  1  0
 12  6  2  0
  1 15  1  0
  1 16  1  0
  1 17  1  0
  3 18  1  0
  4 19  1  0
  7 20  1  0
  8 21  1  0
 11 22  1  0
 12 23  1  0
 14 24  1  0
M  END
$$$$

     RDKit          3D

 24 25  0  0  0  0  0  0  0  0999 V2000
   -1.0980   -3.2733   -2.7402 C   0  0  0  0  0  0  0  0  0  0  0  0
   -0.6946   -2.1591   -1.8334 C   0  0  0  0  0  0  0  0  0  0  0  0
    0.4613   -1.4005   -2.0358 C   0  0  0  0  0  0  0  0  0  0  0  0
    0.7836   -0.3792   -1.1696 C   0  0  0  0  0  0  0  0  0  0  0  0
   -0.0571   -0.1097   -0.0871 C   0  0  0  0  0  0  0  0  0  0  0  0
    0.2457    0.9821    0.8803 C   0  0  0  0  0  0  0  0  0  0  0  0
    1.0278    2.0890    0.5245 C   0  0  0  0  0  0  0  0  0  0  0  0
    1.3144    3.0938    1.4423 C   0  0  0  0  0  0  0  0  0  0  0  0
    0.8132    2.9950    2.7247 C   0  0  0  0  0  0  0  0  0  0  0  0
    1.2072    4.3623    3.9833 Br  0  0  0  0  0  0  0  0  0  0  0  0
    0.0278    1.9208    3.1064 C   0  0  0  0  0  0  0  0  0  0  0  0
   -0.2589    0.9226    2.1819 C   0  0  0  0  0  0  0  0  0  0  0  0
   -1.1617   -0.8339    0.1256 N   0  0  0  0  0  0  0  0  0  0  0  0
   -1.4704   -1.8038   -0.7181 C   0  0  0  0  0  0  0  0  0  0  0  0
   -1.8930   -2.9539   -3.4100 H   0  0  0  0  0  0  0  0  0  0  0  0
   -0.2575   -3.6074   -3.3540 H   0  0  0  0  0  0  0  0  0  0  0  0
   -1.4751   -4.1263   -2.1701 H   0  0  0  0  0  0  0  0  0  0  0  0
    1.1064   -1.6235   -2.8722 H   0  0  0  0  0  0  0  0  0  0  0  0
    1.6820    0.2042   -1.3087 H   0  0  0  0  0  0  0  0  0  0  0  0
    1.4113    2.1776   -0.4846 H   0  0  0  0  0  0  0  0  0  0  0  0
    1.9164    3.9393    1.1427 H   0  0  0  0  0  0  0  0  0  0  0  0
   -0.3578    1.8507    4.1145 H   0  0  0  0  0  0  0  0  0  0  0  0
   -0.8865    0.0862    2.4686 H   0  0  0  0  0  0  0  0  0  0  0  0
   -2.3865   -2.3528   -0.5110 H   0  0  0  0  0  0  0  0  0  0  0  0
  1  2  1  0
  2  3  2  0
  3  4  1  0
  4  5  2  0
  5  6  1  0
  6  7  1  0
  7  8  2  0
  8  9  1  0
  9 10  1  0
  9 11  2  0
 11 12  1  0
  5 13  1  0
 13 14  2  0
 14  2  1  0
 12  6  2  0
  1 15  1  0
  1 16  1  0
  1 17  1  0
  3 18  1  0
  4 19  1  0
  7 20  1  0
  8 21  1  0
 11 22  1  0
 12 23  1  0
 14 24  1  0
M  END
$$$$
