
     RDKit          3D

 24 25  0  0  0  0  0  0  0  0999 V2000
    0.2232    4.3753    0.5321 C   0  0  0  0  0  0  0  0  0  0  0  0
    0.1956    2.8971    0.3433 C   0  0  0  0  0  0  0  0  0  0  0  0
    1.3331    2.0943    0.4641 C   0  0  0  0  0  0  0  0  0  0  0  0
    1.2423    0.7313    0.2972 C   0  0  0  0  0  0  0  0  0  0  0  0
    0.0031    0.1588    0.0122 C   0  0  0  0  0  0  0  0  0  0  0  0
   -0.1601   -1.3122   -0.1673 C   0  0  0  0  0  0  0  0  0  0  0  0
    0.7816   -2.2318    0.3138 C   0  0  0  0  0  0  0  0  0  0  0  0
    0.6221   -3.5991    0.1230 C   0  0  0  0  0  0  0  0  0  0  0  0
   -0.4963   -4.0646   -0.5444 C   0  0  0  0  0  0  0  0  0  0  0  0
   -0.7426   -6.1111   -0.8365 I   0  0  0  0  0  0  0  0  0  0  0  0
   -1.4544   -3.1797   -1.0177 C   0  0  0  0  0  0  0  0  0  0  0  0
   -1.2846   -1.8148   -0.8280 C   0  0  0  0  0  0  0  0  0  0  0  0
   -1.0917    0.9190   -0.1169 N   0  0  0  0  0  0  0  0  0  0  0  0
   -0.9997    2.2249    0.0452 C   0  0  0  0  0  0  0  0  0  0  0  0
   -0.2498    4.6473    1.4742 H   0  0  0  0  0  0  0  0  0  0  0  0
   -0.3240    4.8856   -0.2637 H   0  0  0  0  0  0  0  0  0  0  0  0
    1.2519    4.7536    0.5474 H   0  0  0  0  0  0  0  0  0  0  0  0
    2.2884    2.5465    0.6809 H   0  0  0  0  0  0  0  0  0  0  0  0
    2.1246    0.1096    0.3736 H   0  0  0  0  0  0  0  0  0  0  0  0
    1.6548   -1.8803    0.8543 H   0  0  0  0  0  0  0  0  0  0  0  0
    1.3720   -4.2799    0.5050 H   0  0  0  0  0  0  0  0  0  0  0  0
   -2.3321   -3.5442   -1.5385 H   0  0  0  0  0  0  0  0  0  0  0  0
   -2.0384   -1.1228   -1.1899 H   0  0  0  0  0  0  0  0  0  0  0  0
   -1.9189    2.7972   -0.0635 H   0  0  0  0  0  0  0  0  0  0  0  0
  1  2  1  0
  2  3  2  0
  3  4  1  0
  4  5  2  0
  5  6  1  0
  6  7  1  0
  7  8  2  0
  8  9  1  0
  9 10  1  0
  9 11  2  0
 11 12  1  0
  5 13  1  0
 13 14  2  0
 14  2  1  0
 12  6  2  0
  1 15  1  0
  1 16  1  0
  1 17  1  0
  3 18  1  0
  4 19  1  0
  7 20  1  0
  8 21  1  0
 11 22  1  0
 12 23  1  0
 14 24  1  0
M  END
$$$$

     RDKit          3D

 24 25  0  0  0  0  0  0  0  0999 V2000
    4.1923   -0.0366   -1.3893 C   0  0  0  0  0  0  0  0  0  0  0  0
    2.7709   -0.0112   -0.9430 C   0  0  0  0  0  0  0  0  0  0  0  0
    1.8415    0.8733   -1.5007 C   0  0  0  0  0  0  0  0  0  0  0  0
    0.5391    0.8747   -1.0607 C   0  0  0  0  0  0  0  0  0  0  0  0
    0.1504   -0.0092   -0.0506 C   0  0  0  0  0  0  0  0  0  0  0  0
   -1.2450   -0.0469    0.4792 C   0  0  0  0  0  0  0  0  0  0  0  0
   -2.2115    0.9048    0.1247 C   0  0  0  0  0  0  0  0  0  0  0  0
   -3.5043    0.8435    0.6282 C   0  0  0  0  0  0  0  0  0  0  0  0
   -3.8497   -0.1791    1.4927 C   0  0  0  0  0  0  0  0  0  0  0  0
   -5.7940   -0.2853    2.2306 I   0  0  0  0  0  0  0  0  0  0  0  0
   -2.9176   -1.1332    1.8684 C   0  0  0  0  0  0  0  0  0  0  0  0
   -1.6257   -1.0596    1.3688 C   0  0  0  0  0  0  0  0  0  0  0  0
    1.0279   -0.8675    0.4839 N   0  0  0  0  0  0  0  0  0  0  0  0
    2.2796   -0.8665    0.0536 C   0  0  0  0  0  0  0  0  0  0  0  0
    4.6454    0.9497   -1.2841 H   0  0  0  0  0  0  0  0  0  0  0  0
    4.2579   -0.2955   -2.4432 H   0  0  0  0  0  0  0  0  0  0  0  0
    4.7843   -0.7560   -0.8102 H   0  0  0  0  0  0  0  0  0  0  0  0
    2.1554    1.5526   -2.2801 H   0  0  0  0  0  0  0  0  0  0  0  0
   -0.1834    1.5471   -1.5029 H   0  0  0  0  0  0  0  0  0  0  0  0
   -1.9560    1.7208   -0.5449 H   0  0  0  0  0  0  0  0  0  0  0  0
   -4.2259    1.5957    0.3374 H   0  0  0  0  0  0  0  0  0  0  0  0
   -3.1859   -1.9334    2.5489 H   0  0  0  0  0  0  0  0  0  0  0  0
   -0.8953   -1.8003    1.6723 H   0  0  0  0  0  0  0  0  0  0  0  0
    2.9498   -1.5818    0.5210 H   0  0  0  0  0  0  0  0  0  0  0  0
  1  2  1  0
  2  3  2  0
  3  4  1  0
  4  5  2  0
  5  6  1  0
  6  7  1  0
  7  8  2  0
  8  9  1  0
  9 10  1  0
  9 11  2  0
 11 12  1  0
  5 13  1  0
 13 14  2  0
 14  2  1  0
 12  6  2  0
  1 15  1  0
  1 16  1  0
  1 17  1  0
  3 18  1  0
  4 19  1  0
  7 20  1  0
  8 21  1  0
 11 22  1  0
 12 23  1  0
 14 24  1  0
M  END
$$$$

     RDKit          3D

 24 25  0  0  0  0  0  0  0  0999 V2000
   -0.6473   -3.7189    2.2904 C   0  0  0  0  0  0  0  0  0  0  0  0
   -0.4586   -2.4775    1.4846 C   0  0  0  0  0  0  0  0  0  0  0  0
   -1.5166   -1.8409    0.8305 C   0  0  0  0  0  0  0  0  0  0  0  0
   -1.2974   -0.6791    0.1259 C   0  0  0  0  0  0  0  0  0  0  0  0
   -0.0110   -0.1401    0.0749 C   0  0  0  0  0  0  0  0  0  0  0  0
    0.2811    1.1228   -0.6631 C   0  0  0  0  0  0  0  0  0  0  0  0
   -0.7240    2.0325   -1.0190 C   0  0  0  0  0  0  0  0  0  0  0  0
   -0.4296    3.2037   -1.7048 C   0  0  0  0  0  0  0  0  0  0  0  0
    0.8814    3.4780   -2.0487 C   0  0  0  0  0  0  0  0  0  0  0  0
    1.3321    5.2295   -3.0763 I   0  0  0  0  0  0  0  0  0  0  0  0
    1.8982    2.5976   -1.7089 C   0  0  0  0  0  0  0  0  0  0  0  0
    1.5968    1.4314   -1.0179 C   0  0  0  0  0  0  0  0  0  0  0  0
    1.0154   -0.7477    0.6826 N   0  0  0  0  0  0  0  0  0  0  0  0
    0.7976   -1.8627    1.3581 C   0  0  0  0  0  0  0  0  0  0  0  0
   -0.7539   -3.4730    3.3453 H   0  0  0  0  0  0  0  0  0  0  0  0
    0.2108   -4.3889    2.1925 H   0  0  0  0  0  0  0  0  0  0  0  0
   -1.5517   -4.2553    1.9849 H   0  0  0  0  0  0  0  0  0  0  0  0
   -2.5068   -2.2704    0.8734 H   0  0  0  0  0  0  0  0  0  0  0  0
   -2.1100   -0.1896   -0.3951 H   0  0  0  0  0  0  0  0  0  0  0  0
   -1.7578    1.8299   -0.7602 H   0  0  0  0  0  0  0  0  0  0  0  0
   -1.2317    3.8845   -1.9581 H   0  0  0  0  0  0  0  0  0  0  0  0
    2.9259    2.8088   -1.9789 H   0  0  0  0  0  0  0  0  0  0  0  0
    2.3940    0.7458   -0.7459 H   0  0  0  0  0  0  0  0  0  0  0  0
    1.6631   -2.3206    1.8336 H   0  0  0  0  0  0  0  0  0  0  0  0
  1  2  1  0
  2  3  2  0
  3  4  1  0
  4  5  2  0
  5  6  1  0
  6  7  1  0
  7  8  2  0
  8  9  1  0
  9 10  1  0
  9 11  2  0
 11 12  1  0
  5 13  1  0
 13 14  2  0
 14  2  1  0
 12  6  2  0
  1 15  1  0
  1 16  1  0
  1 17  1  0
  3 18  1  0
  4 19  1  0
  7 20  1  0
  8 21  1  0
 11 22  1  0
 12 23  1  0
 14 24  1  0
M  END
$$$$

     RDKit          3D

 24 25  0  0  0  0  0  0  0  0999 V2000
   -0.3956   -4.3065    0.8745 C   0  0  0  0  0  0  0  0  0  0  0  0
   -0.2882   -2.8411    0.6228 C   0  0  0  0  0  0  0  0  0  0  0  0
   -0.9132   -1.8849    1.4271 C   0  0  0  0  0  0  0  0  0  0  0  0
   -0.7836   -0.5451    1.1370 C   0  0  0  0  0  0  0  0  0  0  0  0
   -0.0223   -0.1529    0.0334 C   0  0  0  0  0  0  0  0  0  0  0  0
    0.1616    1.2798   -0.3346 C   0  0  0  0  0  0  0  0  0  0  0  0
   -0.6854    2.2915    0.1380 C   0  0  0  0  0  0  0  0  0  0  0  0
   -0.4895    3.6203   -0.2152 C   0  0  0  0  0  0  0  0  0  0  0  0
    0.5596    3.9527   -1.0531 C   0  0  0  0  0  0  0  0  0  0  0  0
    0.8701    5.9407   -1.5815 I   0  0  0  0  0  0  0  0  0  0  0  0
    1.4127    2.9746   -1.5402 C   0  0  0  0  0  0  0  0  0  0  0  0
    1.2084    1.6489   -1.1866 C   0  0  0  0  0  0  0  0  0  0  0  0
    0.5804   -1.0619   -0.7434 N   0  0  0  0  0  0  0  0  0  0  0  0
    0.4451   -2.3434   -0.4648 C   0  0  0  0  0  0  0  0  0  0  0  0
   -0.7233   -4.5085    1.8987 H   0  0  0  0  0  0  0  0  0  0  0  0
   -1.1164   -4.7566    0.1918 H   0  0  0  0  0  0  0  0  0  0  0  0
    0.5642   -4.8021    0.7065 H   0  0  0  0  0  0  0  0  0  0  0  0
   -1.4987   -2.2018    2.2783 H   0  0  0  0  0  0  0  0  0  0  0  0
   -1.2528    0.2011    1.7651 H   0  0  0  0  0  0  0  0  0  0  0  0
   -1.5219    2.0439    0.7820 H   0  0  0  0  0  0  0  0  0  0  0  0
   -1.1639    4.3756    0.1664 H   0  0  0  0  0  0  0  0  0  0  0  0
    2.2385    3.2353   -2.1937 H   0  0  0  0  0  0  0  0  0  0  0  0
    1.8740    0.8841   -1.5732 H   0  0  0  0  0  0  0  0  0  0  0  0
    0.9404   -3.0438   -1.1351 H   0  0  0  0  0  0  0  0  0  0  0  0
  1  2  1  0
  2  3  2  0
  3  4  1  0
  4  5  2  0
  5  6  1  0
  6  7  1  0
  7  8  2  0
  8  9  1  0
  9 10  1  0
  9 11  2  0
 11 12  1  0
  5 13  1  0
 13 14  2  0
 14  2  1  0
 12  6  2  0
  1 15  1  0
  1 16  1  0
  1 17  1  0
  3 18  1  0
  4 19  1  0
  7 20  1  0
  8 21  1  0
 11 22  1  0
 12 23  1  0
 14 24  1  0
M  END
$$$$

     RDKit          3D

 24 25  0  0  0  0  0  0  0  0999 V2000
    2.2727    1.5351    3.4634 C   0  0  0  0  0  0  0  0  0  0  0  0
    1.4883    0.9831    2.3209 C   0  0  0  0  0  0  0  0  0  0  0  0
    0.3806    0.1494    2.5030 C   0  0  0  0  0  0  0  0  0  0  0  0
   -0.3216   -0.3161    1.4144 C   0  0  0  0  0  0  0  0  0  0  0  0
    0.0802    0.0485    0.1274 C   0  0  0  0  0  0  0  0  0  0  0  0
   -0.6358   -0.4216   -1.0948 C   0  0  0  0  0  0  0  0  0  0  0  0
   -1.7589   -1.2592   -1.0381 C   0  0  0  0  0  0  0  0  0  0  0  0
   -2.4043   -1.6855   -2.1910 C   0  0  0  0  0  0  0  0  0  0  0  0
   -1.9364   -1.2724   -3.4238 C   0  0  0  0  0  0  0  0  0  0  0  0
   -2.9038   -1.9010   -5.1583 I   0  0  0  0  0  0  0  0  0  0  0  0
   -0.8290   -0.4417   -3.5148 C   0  0  0  0  0  0  0  0  0  0  0  0
   -0.1864   -0.0229   -2.3592 C   0  0  0  0  0  0  0  0  0  0  0  0
    1.1424    0.8445   -0.0586 N   0  0  0  0  0  0  0  0  0  0  0  0
    1.8134    1.2876    0.9885 C   0  0  0  0  0  0  0  0  0  0  0  0
    3.3382    1.5924    3.2181 H   0  0  0  0  0  0  0  0  0  0  0  0
    2.1473    0.9230    4.3608 H   0  0  0  0  0  0  0  0  0  0  0  0
    1.9394    2.5406    3.7064 H   0  0  0  0  0  0  0  0  0  0  0  0
    0.0759   -0.1303    3.5016 H   0  0  0  0  0  0  0  0  0  0  0  0
   -1.1778   -0.9604    1.5574 H   0  0  0  0  0  0  0  0  0  0  0  0
   -2.1456   -1.5935   -0.0802 H   0  0  0  0  0  0  0  0  0  0  0  0
   -3.2669   -2.3319   -2.1068 H   0  0  0  0  0  0  0  0  0  0  0  0
   -0.4607   -0.1182   -4.4810 H   0  0  0  0  0  0  0  0  0  0  0  0
    0.6770    0.6269   -2.4383 H   0  0  0  0  0  0  0  0  0  0  0  0
    2.6716    1.9235    0.7831 H   0  0  0  0  0  0  0  0  0  0  0  0
  1  2  1  0
  2  3  2  0
  3  4  1  0
  4  5  2  0
  5  6  1  0
  6  7  1  0
  7  8  2  0
  8  9  1  0
  9 10  1  0
  9 11  2  0
 11 12  1  0
  5 13  1  0
 13 14  2  0
 14  2  1  0
 12  6  2  0
  1 15  1  0
  1 16  1  0
  1 17  1  0
  3 18  1  0
  4 19  1  0
  7 20  1  0
  8 21  1  0
 11 22  1  0
 12 23  1  0
 14 24  1  0
M  END
$$$$

     RDKit          3D

 24 25  0  0  0  0  0  0  0  0999 V2000
    3.3262    1.6473    2.3835 C   0  0  0  0  0  0  0  0  0  0  0  0
    2.2192    1.0831    1.5599 C   0  0  0  0  0  0  0  0  0  0  0  0
    2.3999   -0.0320    0.7338 C   0  0  0  0  0  0  0  0  0  0  0  0
    1.3486   -0.5294    0.0020 C   0  0  0  0  0  0  0  0  0  0  0  0
    0.0992    0.0819    0.0997 C   0  0  0  0  0  0  0  0  0  0  0  0
   -1.0663   -0.4202   -0.6795 C   0  0  0  0  0  0  0  0  0  0  0  0
   -0.9063   -0.9949   -1.9452 C   0  0  0  0  0  0  0  0  0  0  0  0
   -1.9967   -1.4584   -2.6704 C   0  0  0  0  0  0  0  0  0  0  0  0
   -3.2640   -1.3590   -2.1254 C   0  0  0  0  0  0  0  0  0  0  0  0
   -4.8998   -2.0736   -3.1915 I   0  0  0  0  0  0  0  0  0  0  0  0
   -3.4527   -0.7918   -0.8738 C   0  0  0  0  0  0  0  0  0  0  0  0
   -2.3578   -0.3197   -0.1621 C   0  0  0  0  0  0  0  0  0  0  0  0
   -0.0946    1.1353    0.8958 N   0  0  0  0  0  0  0  0  0  0  0  0
    0.9227    1.6190    1.5882 C   0  0  0  0  0  0  0  0  0  0  0  0
    3.4196    1.0935    3.3158 H   0  0  0  0  0  0  0  0  0  0  0  0
    3.1535    2.7017    2.6245 H   0  0  0  0  0  0  0  0  0  0  0  0
    4.2852    1.5573    1.8663 H   0  0  0  0  0  0  0  0  0  0  0  0
    3.3729   -0.5036    0.6773 H   0  0  0  0  0  0  0  0  0  0  0  0
    1.4737   -1.3925   -0.6407 H   0  0  0  0  0  0  0  0  0  0  0  0
    0.0853   -1.0684   -2.3824 H   0  0  0  0  0  0  0  0  0  0  0  0
   -1.8385   -1.8889   -3.6512 H   0  0  0  0  0  0  0  0  0  0  0  0
   -4.4451   -0.7084   -0.4480 H   0  0  0  0  0  0  0  0  0  0  0  0
   -2.5008    0.1329    0.8161 H   0  0  0  0  0  0  0  0  0  0  0  0
    0.7166    2.4888    2.2076 H   0  0  0  0  0  0  0  0  0  0  0  0
  1  2  1  0
  2  3  2  0
  3  4  1  0
  4  5  2  0
  5  6  1  0
  6  7  1  0
  7  8  2  0
  8  9  1  0
  9 10  1  0
  9 11  2  0
 11 12  1  0
  5 13  1  0
 13 14  2  0
 14  2  1  0
 12  6  2  0
  1 15  1  0
  1 16  1  0
  1 17  1  0
  3 18  1  0
  4 19  1  0
  7 20  1  0
  8 21  1  0
 11 22  1  0
 12 23  1  0
 14 24  1  0
M  END
$$$$

     RDKit          3D

 24 25  0  0  0  0  0  0  0  0999 V2000
    3.3052   -0.7343    2.8253 C   0  0  0  0  0  0  0  0  0  0  0  0
    2.1951   -0.5226    1.8536 C   0  0  0  0  0  0  0  0  0  0  0  0
    1.6664   -1.5549    1.0732 C   0  0  0  0  0  0  0  0  0  0  0  0
    0.6365   -1.3014    0.1978 C   0  0  0  0  0  0  0  0  0  0  0  0
    0.1239   -0.0070    0.1021 C   0  0  0  0  0  0  0  0  0  0  0  0
   -0.9874    0.3239   -0.8323 C   0  0  0  0  0  0  0  0  0  0  0  0
   -1.1983   -0.4006   -2.0119 C   0  0  0  0  0  0  0  0  0  0  0  0
   -2.2477   -0.0955   -2.8694 C   0  0  0  0  0  0  0  0  0  0  0  0
   -3.1006    0.9473   -2.5521 C   0  0  0  0  0  0  0  0  0  0  0  0
   -4.6907    1.3955   -3.8170 I   0  0  0  0  0  0  0  0  0  0  0  0
   -2.9086    1.6909   -1.3964 C   0  0  0  0  0  0  0  0  0  0  0  0
   -1.8513    1.3845   -0.5498 C   0  0  0  0  0  0  0  0  0  0  0  0
    0.6069    0.9844    0.8537 N   0  0  0  0  0  0  0  0  0  0  0  0
    1.6029    0.7381    1.6866 C   0  0  0  0  0  0  0  0  0  0  0  0
    2.9113   -0.9173    3.8226 H   0  0  0  0  0  0  0  0  0  0  0  0
    3.9112   -1.6037    2.5484 H   0  0  0  0  0  0  0  0  0  0  0  0
    3.9536    0.1444    2.8797 H   0  0  0  0  0  0  0  0  0  0  0  0
    2.0661   -2.5559    1.1651 H   0  0  0  0  0  0  0  0  0  0  0  0
    0.2068   -2.0956   -0.3990 H   0  0  0  0  0  0  0  0  0  0  0  0
   -0.5238   -1.2097   -2.2741 H   0  0  0  0  0  0  0  0  0  0  0  0
   -2.3823   -0.6771   -3.7728 H   0  0  0  0  0  0  0  0  0  0  0  0
   -3.5737    2.5120   -1.1481 H   0  0  0  0  0  0  0  0  0  0  0  0
   -1.6943    1.9724    0.3498 H   0  0  0  0  0  0  0  0  0  0  0  0
    1.9729    1.5823    2.2651 H   0  0  0  0  0  0  0  0  0  0  0  0
  1  2  1  0
  2  3  2  0
  3  4  1  0
  4  5  2  0
  5  6  1  0
  6  7  1  0
  7  8  2  0
  8  9  1  0
  9 10  1  0
  9 11  2  0
 11 12  1  0
  5 13  1  0
 13 14  2  0
 14  2  1  0
 12  6  2  0
  1 15  1  0
  1 16  1  0
  1 17  1  0
  3 18  1  0
  4 19  1  0
  7 20  1  0
  8 21  1  0
 11 22  1  0
 12 23  1  0
 14 24  1  0
M  END
$$$$

     RDKit          3D

 24 25  0  0  0  0  0  0  0  0999 V2000
   -3.1011    0.4473    3.1068 C   0  0  0  0  0  0  0  0  0  0  0  0
   -2.0513    0.2535    2.0673 C   0  0  0  0  0  0  0  0  0  0  0  0
   -0.8655   -0.4420    2.3313 C   0  0  0  0  0  0  0  0  0  0  0  0
    0.0880   -0.5773    1.3502 C   0  0  0  0  0  0  0  0  0  0  0  0
   -0.1322   -0.0068    0.0939 C   0  0  0  0  0  0  0  0  0  0  0  0
    0.8825   -0.0861   -0.9953 C   0  0  0  0  0  0  0  0  0  0  0  0
    2.2266   -0.3900   -0.7417 C   0  0  0  0  0  0  0  0  0  0  0  0
    3.1559   -0.4658   -1.7713 C   0  0  0  0  0  0  0  0  0  0  0  0
    2.7499   -0.2331   -3.0731 C   0  0  0  0  0  0  0  0  0  0  0  0
    4.1369   -0.3599   -4.6190 I   0  0  0  0  0  0  0  0  0  0  0  0
    1.4279    0.0785   -3.3548 C   0  0  0  0  0  0  0  0  0  0  0  0
    0.5073    0.1610   -2.3197 C   0  0  0  0  0  0  0  0  0  0  0  0
   -1.2727    0.6354   -0.1792 N   0  0  0  0  0  0  0  0  0  0  0  0
   -2.1866    0.7627    0.7672 C   0  0  0  0  0  0  0  0  0  0  0  0
   -3.9663    0.9924    2.7104 H   0  0  0  0  0  0  0  0  0  0  0  0
   -2.7028    1.0067    3.9539 H   0  0  0  0  0  0  0  0  0  0  0  0
   -3.4359   -0.5127    3.4973 H   0  0  0  0  0  0  0  0  0  0  0  0
   -0.7039   -0.8670    3.3132 H   0  0  0  0  0  0  0  0  0  0  0  0
    0.9956   -1.1328    1.5405 H   0  0  0  0  0  0  0  0  0  0  0  0
    2.5655   -0.5516    0.2767 H   0  0  0  0  0  0  0  0  0  0  0  0
    4.1868   -0.7026   -1.5406 H   0  0  0  0  0  0  0  0  0  0  0  0
    1.1074    0.2630   -4.3744 H   0  0  0  0  0  0  0  0  0  0  0  0
   -0.5243    0.4208   -2.5367 H   0  0  0  0  0  0  0  0  0  0  0  0
   -3.0879    1.3066    0.4972 H   0  0  0  0  0  0  0  0  0  0  0  0
  1  2  1  0
  2  3  2  0
  3  4  1  0
  4  5  2  0
  5  6  1  0
  6  7  1  0
  7  8  2  0
  8  9  1  0
  9 10  1  0
  9 11  2  0
 11 12  1  0
  5 13  1  0
 13 14  2  0
 14  2  1  0
 12  6  2  0
  1 15  1  0
  1 16  1  0
  1 17  1  0
  3 18  1  0
  4 19  1  0
  7 20  1  0
  8 21  1  0
 11 22  1  0
 12 23  1  0
 14 24  1  0
M  END
$$$$

     RDKit          3D

 24 25  0  0  0  0  0  0  0  0999 V2000
    2.9308   -3.3008    0.1133 C   0  0  0  0  0  0  0  0  0  0  0  0
    1.9147   -2.2136    0.0358 C   0  0  0  0  0  0  0  0  0  0  0  0
    0.7043   -2.3484   -0.6479 C   0  0  0  0  0  0  0  0  0  0  0  0
   -0.1979   -1.3085   -0.6734 C   0  0  0  0  0  0  0  0  0  0  0  0
    0.1059   -0.1192   -0.0093 C   0  0  0  0  0  0  0  0  0  0  0  0
   -0.8327    1.0419    0.0129 C   0  0  0  0  0  0  0  0  0  0  0  0
   -2.1437    0.9623   -0.4802 C   0  0  0  0  0  0  0  0  0  0  0  0
   -2.9996    2.0559   -0.4459 C   0  0  0  0  0  0  0  0  0  0  0  0
   -2.5509    3.2524    0.0806 C   0  0  0  0  0  0  0  0  0  0  0  0
   -3.8292    4.8968    0.1371 I   0  0  0  0  0  0  0  0  0  0  0  0
   -1.2604    3.3643    0.5775 C   0  0  0  0  0  0  0  0  0  0  0  0
   -0.4121    2.2665    0.5452 C   0  0  0  0  0  0  0  0  0  0  0  0
    1.2717    0.0248    0.6391 N   0  0  0  0  0  0  0  0  0  0  0  0
    2.1286   -0.9767    0.6634 C   0  0  0  0  0  0  0  0  0  0  0  0
    3.8741   -2.9822   -0.3328 H   0  0  0  0  0  0  0  0  0  0  0  0
    2.5890   -4.2026   -0.4067 H   0  0  0  0  0  0  0  0  0  0  0  0
    3.1417   -3.5582    1.1496 H   0  0  0  0  0  0  0  0  0  0  0  0
    0.4779   -3.2680   -1.1631 H   0  0  0  0  0  0  0  0  0  0  0  0
   -1.1351   -1.4159   -1.2038 H   0  0  0  0  0  0  0  0  0  0  0  0
   -2.5133    0.0315   -0.9020 H   0  0  0  0  0  0  0  0  0  0  0  0
   -4.0044    1.9552   -0.8332 H   0  0  0  0  0  0  0  0  0  0  0  0
   -0.9062    4.3030    0.9866 H   0  0  0  0  0  0  0  0  0  0  0  0
    0.5906    2.3560    0.9480 H   0  0  0  0  0  0  0  0  0  0  0  0
    3.0563   -0.8166    1.2089 H   0  0  0  0  0  0  0  0  0  0  0  0
  1  2  1  0
  2  3  2  0
  3  4  1  0
  4  5  2  0
  5  6  1  0
  6  7  1  0
  7  8  2  0
  8  9  1  0
  9 10  1  0
  9 11  2  0
 11 12  1  0
  5 13  1  0
 13 14  2  0
 14  2  1  0
 12  6  2  0
  1 15  1  0
  1 16  1  0
  1 17  1  0
  3 18  1  0
  4 19  1  0
  7 20  1  0
  8 21  1  0
 11 22  1  0
 12 23  1  0
 14 24  1  0
M  END
$$$$

     RDKit          3D

 24 25  0  0  0  0  0  0  0  0999 V2000
   -1.0475    2.4343   -3.5334 C   0  0  0  0  0  0  0  0  0  0  0  0
   -0.6706    1.6040   -2.3548 C   0  0  0  0  0  0  0  0  0  0  0  0
    0.1799    0.4997   -2.4754 C   0  0  0  0  0  0  0  0  0  0  0  0
    0.5007   -0.2492   -1.3683 C   0  0  0  0  0  0  0  0  0  0  0  0
   -0.0339    0.0939   -0.1235 C   0  0  0  0  0  0  0  0  0  0  0  0
    0.2651   -0.6867    1.1141 C   0  0  0  0  0  0  0  0  0  0  0  0
    1.0319   -1.8607    1.0995 C   0  0  0  0  0  0  0  0  0  0  0  0
    1.2947   -2.5684    2.2651 C   0  0  0  0  0  0  0  0  0  0  0  0
    0.7992   -2.1026    3.4686 C   0  0  0  0  0  0  0  0  0  0  0  0
    1.2132   -3.1439    5.2241 I   0  0  0  0  0  0  0  0  0  0  0  0
    0.0382   -0.9445    3.5190 C   0  0  0  0  0  0  0  0  0  0  0  0
   -0.2317   -0.2500    2.3486 C   0  0  0  0  0  0  0  0  0  0  0  0
   -0.8457    1.1511    0.0042 N   0  0  0  0  0  0  0  0  0  0  0  0
   -1.1457    1.8721   -1.0623 C   0  0  0  0  0  0  0  0  0  0  0  0
   -0.1604    2.7241   -4.0967 H   0  0  0  0  0  0  0  0  0  0  0  0
   -1.5890    3.3389   -3.2336 H   0  0  0  0  0  0  0  0  0  0  0  0
   -1.6755    1.8667   -4.2181 H   0  0  0  0  0  0  0  0  0  0  0  0
    0.5840    0.2426   -3.4440 H   0  0  0  0  0  0  0  0  0  0  0  0
    1.1712   -1.0925   -1.4615 H   0  0  0  0  0  0  0  0  0  0  0  0
    1.4297   -2.2461    0.1660 H   0  0  0  0  0  0  0  0  0  0  0  0
    1.8850   -3.4734    2.2136 H   0  0  0  0  0  0  0  0  0  0  0  0
   -0.3523   -0.5806    4.4621 H   0  0  0  0  0  0  0  0  0  0  0  0
   -0.8353    0.6504    2.3896 H   0  0  0  0  0  0  0  0  0  0  0  0
   -1.8051    2.7206   -0.9029 H   0  0  0  0  0  0  0  0  0  0  0  0
  1  2  1  0
  2  3  2  0
  3  4  1  0
  4  5  2  0
  5  6  1  0
  6  7  1  0
  7  8  2  0
  8  9  1  0
  9 10  1  0
  9 11  2  0
 11 12  1  0
  5 13  1  0
 13 14  2  0
 14  2  1  0
 12  6  2  0
  1 15  1  0
  1 16  1  0
  1 17  1  0
  3 18  1  0
  4 19  1  0
  7 20  1  0
  8 21  1  0
 11 22  1  0
 12 23  1  0
 14 24  1  0
M  END
$$$$

     RDKit          3D

 24 25  0  0  0  0  0  0  0  0999 V2000
    4.0112   -1.3893    1.2093 C   0  0  0  0  0  0  0  0  0  0  0  0
    2.6557   -0.8877    0.8428 C   0  0  0  0  0  0  0  0  0  0  0  0
    2.1533    0.3385    1.2869 C   0  0  0  0  0  0  0  0  0  0  0  0
    0.8983    0.7563    0.9014 C   0  0  0  0  0  0  0  0  0  0  0  0
    0.1365   -0.0536    0.0591 C   0  0  0  0  0  0  0  0  0  0  0  0
   -1.2182    0.3512   -0.4136 C   0  0  0  0  0  0  0  0  0  0  0  0
   -1.6692    1.6765   -0.3593 C   0  0  0  0  0  0  0  0  0  0  0  0
   -2.9381    2.0275   -0.8021 C   0  0  0  0  0  0  0  0  0  0  0  0
   -3.7721    1.0506   -1.3128 C   0  0  0  0  0  0  0  0  0  0  0  0
   -5.6747    1.5699   -1.9758 I   0  0  0  0  0  0  0  0  0  0  0  0
   -3.3502   -0.2683   -1.3910 C   0  0  0  0  0  0  0  0  0  0  0  0
   -2.0829   -0.6112   -0.9426 C   0  0  0  0  0  0  0  0  0  0  0  0
    0.5984   -1.2431   -0.3544 N   0  0  0  0  0  0  0  0  0  0  0  0
    1.8020   -1.6363    0.0174 C   0  0  0  0  0  0  0  0  0  0  0  0
    3.9429   -2.3380    1.7443 H   0  0  0  0  0  0  0  0  0  0  0  0
    4.5409   -0.6707    1.8470 H   0  0  0  0  0  0  0  0  0  0  0  0
    4.6106   -1.5659    0.3167 H   0  0  0  0  0  0  0  0  0  0  0  0
    2.7496    0.9554    1.9412 H   0  0  0  0  0  0  0  0  0  0  0  0
    0.5011    1.7027    1.2489 H   0  0  0  0  0  0  0  0  0  0  0  0
   -1.0212    2.4561    0.0300 H   0  0  0  0  0  0  0  0  0  0  0  0
   -3.2558    3.0603   -0.7458 H   0  0  0  0  0  0  0  0  0  0  0  0
   -4.0058   -1.0344   -1.7889 H   0  0  0  0  0  0  0  0  0  0  0  0
   -1.7466   -1.6403   -1.0074 H   0  0  0  0  0  0  0  0  0  0  0  0
    2.1343   -2.6062   -0.3512 H   0  0  0  0  0  0  0  0  0  0  0  0
  1  2  1  0
  2  3  2  0
  3  4  1  0
  4  5  2  0
  5  6  1  0
  6  7  1  0
  7  8  2  0
  8  9  1  0
  9 10  1  0
  9 11  2  0
 11 12  1  0
  5 13  1  0
 13 14  2  0
 14  2  1  0
 12  6  2  0
  1 15  1  0
  1 16  1  0
  1 17  1  0
  3 18  1  0
  4 19  1  0
  7 20  1  0
  8 21  1  0
 11 22  1  0
 12 23  1  0
 14 24  1  0
M  END
$$$$

     RDKit          3D

 24 25  0  0  0  0  0  0  0  0999 V2000
    0.0642   -0.0537   -4.4147 C   0  0  0  0  0  0  0  0  0  0  0  0
    0.0168   -0.0669   -2.9240 C   0  0  0  0  0  0  0  0  0  0  0  0
   -0.2924   -1.2200   -2.1968 C   0  0  0  0  0  0  0  0  0  0  0  0
   -0.3041   -1.1887   -0.8222 C   0  0  0  0  0  0  0  0  0  0  0  0
   -0.0111    0.0046   -0.1585 C   0  0  0  0  0  0  0  0  0  0  0  0
   -0.0117    0.1060    1.3296 C   0  0  0  0  0  0  0  0  0  0  0  0
   -0.5674   -0.8865    2.1490 C   0  0  0  0  0  0  0  0  0  0  0  0
   -0.5388   -0.7822    3.5336 C   0  0  0  0  0  0  0  0  0  0  0  0
    0.0427    0.3277    4.1183 C   0  0  0  0  0  0  0  0  0  0  0  0
    0.1059    0.4903    6.1920 I   0  0  0  0  0  0  0  0  0  0  0  0
    0.5870    1.3345    3.3353 C   0  0  0  0  0  0  0  0  0  0  0  0
    0.5525    1.2241    1.9530 C   0  0  0  0  0  0  0  0  0  0  0  0
    0.2924    1.1147   -0.8439 N   0  0  0  0  0  0  0  0  0  0  0  0
    0.3082    1.0765   -2.1635 C   0  0  0  0  0  0  0  0  0  0  0  0
   -0.5456   -0.8617   -4.8341 H   0  0  0  0  0  0  0  0  0  0  0  0
   -0.2899    0.9003   -4.8136 H   0  0  0  0  0  0  0  0  0  0  0  0
    1.0827   -0.2032   -4.7645 H   0  0  0  0  0  0  0  0  0  0  0  0
   -0.5170   -2.1389   -2.7179 H   0  0  0  0  0  0  0  0  0  0  0  0
   -0.5272   -2.0846   -0.2608 H   0  0  0  0  0  0  0  0  0  0  0  0
   -1.0442   -1.7550    1.7063 H   0  0  0  0  0  0  0  0  0  0  0  0
   -0.9717   -1.5716    4.1323 H   0  0  0  0  0  0  0  0  0  0  0  0
    1.0403    2.2071    3.7907 H   0  0  0  0  0  0  0  0  0  0  0  0
    0.9692    2.0210    1.3460 H   0  0  0  0  0  0  0  0  0  0  0  0
    0.5591    2.0063   -2.6714 H   0  0  0  0  0  0  0  0  0  0  0  0
  1  2  1  0
  2  3  2  0
  3  4  1  0
  4  5  2  0
  5  6  1  0
  6  7  1  0
  7  8  2  0
  8  9  1  0
  9 10  1  0
  9 11  2  0
 11 12  1  0
  5 13  1  0
 13 14  2  0
 14  2  1  0
 12  6  2  0
  1 15  1  0
  1 16  1  0
  1 17  1  0
  3 18  1  0
  4 19  1  0
  7 20  1  0
  8 21  1  0
 11 22  1  0
 12 23  1  0
 14 24  1  0
M  END
$$$$
