
     RDKit          3D

 25 26  0  0  0  0  0  0  0  0999 V2000
   -2.0952   -1.3469    3.9300 C   0  0  0  0  0  0  0  0  0  0  0  0
   -1.4530   -0.8835    2.6695 C   0  0  0  0  0  0  0  0  0  0  0  0
   -1.4703    0.4575    2.2792 C   0  0  0  0  0  0  0  0  0  0  0  0
   -0.8467    0.8467    1.1199 C   0  0  0  0  0  0  0  0  0  0  0  0
   -0.1892   -0.1056    0.3402 C   0  0  0  0  0  0  0  0  0  0  0  0
    0.5094    0.2556   -0.9246 C   0  0  0  0  0  0  0  0  0  0  0  0
    0.8029    1.5851   -1.2683 C   0  0  0  0  0  0  0  0  0  0  0  0
    1.4511    1.8934   -2.4469 C   0  0  0  0  0  0  0  0  0  0  0  0
    1.8312    0.8770   -3.3169 C   0  0  0  0  0  0  0  0  0  0  0  0
    2.5073    1.1879   -4.5353 C   0  0  0  0  0  0  0  0  0  0  0  0
    3.0701    1.4298   -5.5394 N   0  0  0  0  0  0  0  0  0  0  0  0
    1.5512   -0.4505   -2.9938 C   0  0  0  0  0  0  0  0  0  0  0  0
    0.9023   -0.7528   -1.8163 C   0  0  0  0  0  0  0  0  0  0  0  0
   -0.1646   -1.3939    0.6945 N   0  0  0  0  0  0  0  0  0  0  0  0
   -0.7740   -1.7616    1.8126 C   0  0  0  0  0  0  0  0  0  0  0  0
   -1.4364   -1.1776    4.7748 H   0  0  0  0  0  0  0  0  0  0  0  0
   -2.3309   -2.4111    3.8893 H   0  0  0  0  0  0  0  0  0  0  0  0
   -3.0127   -0.7927    4.1225 H   0  0  0  0  0  0  0  0  0  0  0  0
   -1.9774    1.1878    2.8876 H   0  0  0  0  0  0  0  0  0  0  0  0
   -0.8724    1.8795    0.8060 H   0  0  0  0  0  0  0  0  0  0  0  0
    0.5256    2.3900   -0.6011 H   0  0  0  0  0  0  0  0  0  0  0  0
    1.6664    2.9300   -2.6900 H   0  0  0  0  0  0  0  0  0  0  0  0
    1.8466   -1.2442   -3.6771 H   0  0  0  0  0  0  0  0  0  0  0  0
    0.6900   -1.7843   -1.5665 H   0  0  0  0  0  0  0  0  0  0  0  0
   -0.7312   -2.8156    2.0499 H   0  0  0  0  0  0  0  0  0  0  0  0
  1  2  1  0
  2  3  2  0
  3  4  1  0
  4  5  2  0
  5  6  1  0
  6  7  1  0
  7  8  2  0
  8  9  1  0
  9 10  1  0
 10 11  3  0
  9 12  2  0
 12 13  1  0
  5 14  1  0
 14 15  2  0
 15  2  1  0
 13  6  2  0
  1 16  1  0
  1 17  1  0
  1 18  1  0
  3 19  1  0
  4 20  1  0
  7 21  1  0
  8 22  1  0
 12 23  1  0
 13 24  1  0
 15 25  1  0
M  END
$$$$

     RDKit          3D

 25 26  0  0  0  0  0  0  0  0999 V2000
    3.9858   -0.4134   -2.3549 C   0  0  0  0  0  0  0  0  0  0  0  0
    2.7019   -0.2578   -1.6191 C   0  0  0  0  0  0  0  0  0  0  0  0
    1.4773   -0.1670   -2.2896 C   0  0  0  0  0  0  0  0  0  0  0  0
    0.3098   -0.0393   -1.5807 C   0  0  0  0  0  0  0  0  0  0  0  0
    0.3575   -0.0093   -0.1868 C   0  0  0  0  0  0  0  0  0  0  0  0
   -0.8839    0.0985    0.6232 C   0  0  0  0  0  0  0  0  0  0  0  0
   -2.1044   -0.4102    0.1577 C   0  0  0  0  0  0  0  0  0  0  0  0
   -3.2532   -0.3057    0.9157 C   0  0  0  0  0  0  0  0  0  0  0  0
   -3.2097    0.3144    2.1625 C   0  0  0  0  0  0  0  0  0  0  0  0
   -4.3967    0.4268    2.9477 C   0  0  0  0  0  0  0  0  0  0  0  0
   -5.3758    0.5299    3.5930 N   0  0  0  0  0  0  0  0  0  0  0  0
   -2.0013    0.8179    2.6454 C   0  0  0  0  0  0  0  0  0  0  0  0
   -0.8561    0.7070    1.8838 C   0  0  0  0  0  0  0  0  0  0  0  0
    1.5124   -0.0768    0.4716 N   0  0  0  0  0  0  0  0  0  0  0  0
    2.6386   -0.2018   -0.2207 C   0  0  0  0  0  0  0  0  0  0  0  0
    4.0793    0.3489   -3.1253 H   0  0  0  0  0  0  0  0  0  0  0  0
    4.0214   -1.3754   -2.8592 H   0  0  0  0  0  0  0  0  0  0  0  0
    4.8460   -0.3424   -1.6844 H   0  0  0  0  0  0  0  0  0  0  0  0
    1.4609   -0.1943   -3.3686 H   0  0  0  0  0  0  0  0  0  0  0  0
   -0.6436    0.0455   -2.0880 H   0  0  0  0  0  0  0  0  0  0  0  0
   -2.1416   -0.9058   -0.8055 H   0  0  0  0  0  0  0  0  0  0  0  0
   -4.1894   -0.7099    0.5389 H   0  0  0  0  0  0  0  0  0  0  0  0
   -1.9684    1.2961    3.6222 H   0  0  0  0  0  0  0  0  0  0  0  0
    0.0864    1.0894    2.2595 H   0  0  0  0  0  0  0  0  0  0  0  0
    3.5466   -0.2652    0.3616 H   0  0  0  0  0  0  0  0  0  0  0  0
  1  2  1  0
  2  3  2  0
  3  4  1  0
  4  5  2  0
  5  6  1  0
  6  7  1  0
  7  8  2  0
  8  9  1  0
  9 10  1  0
 10 11  3  0
  9 12  2  0
 12 13  1  0
  5 14  1  0
 14 15  2  0
 15  2  1  0
 13  6  2  0
  1 16  1  0
  1 17  1  0
  1 18  1  0
  3 19  1  0
  4 20  1  0
  7 21  1  0
  8 22  1  0
 12 23  1  0
 13 24  1  0
 15 25  1  0
M  END
$$$$

     RDKit          3D

 25 26  0  0  0  0  0  0  0  0999 V2000
   -4.0359   -2.0610   -1.0353 C   0  0  0  0  0  0  0  0  0  0  0  0
   -2.7551   -1.3629   -0.7379 C   0  0  0  0  0  0  0  0  0  0  0  0
   -2.4341   -0.1114   -1.2680 C   0  0  0  0  0  0  0  0  0  0  0  0
   -1.2298    0.4788   -0.9662 C   0  0  0  0  0  0  0  0  0  0  0  0
   -0.3455   -0.1750   -0.1097 C   0  0  0  0  0  0  0  0  0  0  0  0
    0.9568    0.4282    0.2812 C   0  0  0  0  0  0  0  0  0  0  0  0
    1.2116    1.8028    0.1515 C   0  0  0  0  0  0  0  0  0  0  0  0
    2.4278    2.3402    0.5180 C   0  0  0  0  0  0  0  0  0  0  0  0
    3.4256    1.5171    1.0305 C   0  0  0  0  0  0  0  0  0  0  0  0
    4.6850    2.0769    1.4049 C   0  0  0  0  0  0  0  0  0  0  0  0
    5.7223    2.5431    1.7123 N   0  0  0  0  0  0  0  0  0  0  0  0
    3.1885    0.1491    1.1745 C   0  0  0  0  0  0  0  0  0  0  0  0
    1.9698   -0.3828    0.8096 C   0  0  0  0  0  0  0  0  0  0  0  0
   -0.6281   -1.3820    0.3940 N   0  0  0  0  0  0  0  0  0  0  0  0
   -1.7854   -1.9460    0.0902 C   0  0  0  0  0  0  0  0  0  0  0  0
   -4.4838   -2.4571   -0.1265 H   0  0  0  0  0  0  0  0  0  0  0  0
   -3.8660   -2.9022   -1.7042 H   0  0  0  0  0  0  0  0  0  0  0  0
   -4.7497   -1.3890   -1.5146 H   0  0  0  0  0  0  0  0  0  0  0  0
   -3.1295    0.3887   -1.9203 H   0  0  0  0  0  0  0  0  0  0  0  0
   -0.9638    1.4362   -1.3924 H   0  0  0  0  0  0  0  0  0  0  0  0
    0.4438    2.4589   -0.2364 H   0  0  0  0  0  0  0  0  0  0  0  0
    2.6021    3.4087    0.4096 H   0  0  0  0  0  0  0  0  0  0  0  0
    3.9664   -0.4954    1.5782 H   0  0  0  0  0  0  0  0  0  0  0  0
    1.7798   -1.4413    0.9353 H   0  0  0  0  0  0  0  0  0  0  0  0
   -1.9729   -2.9228    0.5216 H   0  0  0  0  0  0  0  0  0  0  0  0
  1  2  1  0
  2  3  2  0
  3  4  1  0
  4  5  2  0
  5  6  1  0
  6  7  1  0
  7  8  2  0
  8  9  1  0
  9 10  1  0
 10 11  3  0
  9 12  2  0
 12 13  1  0
  5 14  1  0
 14 15  2  0
 15  2  1  0
 13  6  2  0
  1 16  1  0
  1 17  1  0
  1 18  1  0
  3 19  1  0
  4 20  1  0
  7 21  1  0
  8 22  1  0
 12 23  1  0
 13 24  1  0
 15 25  1  0
M  END
$$$$

     RDKit          3D

 25 26  0  0  0  0  0  0  0  0999 V2000
   -1.6871   -3.5052   -2.5466 C   0  0  0  0  0  0  0  0  0  0  0  0
   -1.1204   -2.3637   -1.7766 C   0  0  0  0  0  0  0  0  0  0  0  0
   -1.0435   -1.0705   -2.3011 C   0  0  0  0  0  0  0  0  0  0  0  0
   -0.5418   -0.0440   -1.5376 C   0  0  0  0  0  0  0  0  0  0  0  0
   -0.1187   -0.3051   -0.2341 C   0  0  0  0  0  0  0  0  0  0  0  0
    0.4049    0.7701    0.6493 C   0  0  0  0  0  0  0  0  0  0  0  0
    0.0997    2.1215    0.4276 C   0  0  0  0  0  0  0  0  0  0  0  0
    0.5966    3.1086    1.2526 C   0  0  0  0  0  0  0  0  0  0  0  0
    1.4105    2.7695    2.3297 C   0  0  0  0  0  0  0  0  0  0  0  0
    1.9342    3.7854    3.1842 C   0  0  0  0  0  0  0  0  0  0  0  0
    2.3704    4.6164    3.8950 N   0  0  0  0  0  0  0  0  0  0  0  0
    1.7165    1.4303    2.5729 C   0  0  0  0  0  0  0  0  0  0  0  0
    1.2167    0.4480    1.7451 C   0  0  0  0  0  0  0  0  0  0  0  0
   -0.1664   -1.5377    0.2772 N   0  0  0  0  0  0  0  0  0  0  0  0
   -0.6504   -2.5203   -0.4645 C   0  0  0  0  0  0  0  0  0  0  0  0
   -2.7575   -3.5824   -2.3795 H   0  0  0  0  0  0  0  0  0  0  0  0
   -1.2311   -4.4503   -2.2433 H   0  0  0  0  0  0  0  0  0  0  0  0
   -1.5335   -3.3706   -3.6157 H   0  0  0  0  0  0  0  0  0  0  0  0
   -1.3737   -0.8816   -3.3101 H   0  0  0  0  0  0  0  0  0  0  0  0
   -0.4694    0.9567   -1.9405 H   0  0  0  0  0  0  0  0  0  0  0  0
   -0.5419    2.3969   -0.3989 H   0  0  0  0  0  0  0  0  0  0  0  0
    0.3500    4.1501    1.0610 H   0  0  0  0  0  0  0  0  0  0  0  0
    2.3548    1.1690    3.4163 H   0  0  0  0  0  0  0  0  0  0  0  0
    1.4494   -0.5923    1.9385 H   0  0  0  0  0  0  0  0  0  0  0  0
   -0.6683   -3.4990   -0.0008 H   0  0  0  0  0  0  0  0  0  0  0  0
  1  2  1  0
  2  3  2  0
  3  4  1  0
  4  5  2  0
  5  6  1  0
  6  7  1  0
  7  8  2  0
  8  9  1  0
  9 10  1  0
 10 11  3  0
  9 12  2  0
 12 13  1  0
  5 14  1  0
 14 15  2  0
 15  2  1  0
 13  6  2  0
  1 16  1  0
  1 17  1  0
  1 18  1  0
  3 19  1  0
  4 20  1  0
  7 21  1  0
  8 22  1  0
 12 23  1  0
 13 24  1  0
 15 25  1  0
M  END
$$$$

     RDKit          3D

 25 26  0  0  0  0  0  0  0  0999 V2000
    4.4926   -0.2803   -1.1725 C   0  0  0  0  0  0  0  0  0  0  0  0
    3.0709   -0.1724   -0.7467 C   0  0  0  0  0  0  0  0  0  0  0  0
    2.6889    0.3075    0.5076 C   0  0  0  0  0  0  0  0  0  0  0  0
    1.3576    0.3981    0.8378 C   0  0  0  0  0  0  0  0  0  0  0  0
    0.3946   -0.0021   -0.0879 C   0  0  0  0  0  0  0  0  0  0  0  0
   -1.0634    0.0521    0.2150 C   0  0  0  0  0  0  0  0  0  0  0  0
   -1.5575    0.4260    1.4761 C   0  0  0  0  0  0  0  0  0  0  0  0
   -2.9104    0.4612    1.7342 C   0  0  0  0  0  0  0  0  0  0  0  0
   -3.8157    0.1191    0.7380 C   0  0  0  0  0  0  0  0  0  0  0  0
   -5.2188    0.1554    1.0001 C   0  0  0  0  0  0  0  0  0  0  0  0
   -6.3760    0.1924    1.2115 N   0  0  0  0  0  0  0  0  0  0  0  0
   -3.3487   -0.2566   -0.5226 C   0  0  0  0  0  0  0  0  0  0  0  0
   -1.9952   -0.2868   -0.7777 C   0  0  0  0  0  0  0  0  0  0  0  0
    0.7439   -0.4606   -1.2979 N   0  0  0  0  0  0  0  0  0  0  0  0
    2.0267   -0.5415   -1.6065 C   0  0  0  0  0  0  0  0  0  0  0  0
    4.7240    0.4706   -1.9202 H   0  0  0  0  0  0  0  0  0  0  0  0
    5.1706   -0.1388   -0.3298 H   0  0  0  0  0  0  0  0  0  0  0  0
    4.6913   -1.2533   -1.6187 H   0  0  0  0  0  0  0  0  0  0  0  0
    3.4395    0.6091    1.2176 H   0  0  0  0  0  0  0  0  0  0  0  0
    1.0618    0.7795    1.8037 H   0  0  0  0  0  0  0  0  0  0  0  0
   -0.8742    0.6937    2.2702 H   0  0  0  0  0  0  0  0  0  0  0  0
   -3.2632    0.7527    2.7189 H   0  0  0  0  0  0  0  0  0  0  0  0
   -4.0608   -0.5264   -1.2994 H   0  0  0  0  0  0  0  0  0  0  0  0
   -1.6405   -0.5741   -1.7572 H   0  0  0  0  0  0  0  0  0  0  0  0
    2.2619   -0.9248   -2.5936 H   0  0  0  0  0  0  0  0  0  0  0  0
  1  2  1  0
  2  3  2  0
  3  4  1  0
  4  5  2  0
  5  6  1  0
  6  7  1  0
  7  8  2  0
  8  9  1  0
  9 10  1  0
 10 11  3  0
  9 12  2  0
 12 13  1  0
  5 14  1  0
 14 15  2  0
 15  2  1  0
 13  6  2  0
  1 16  1  0
  1 17  1  0
  1 18  1  0
  3 19  1  0
  4 20  1  0
  7 21  1  0
  8 22  1  0
 12 23  1  0
 13 24  1  0
 15 25  1  0
M  END
$$$$

     RDKit          3D

 25 26  0  0  0  0  0  0  0  0999 V2000
    3.5454   -2.1863    2.0589 C   0  0  0  0  0  0  0  0  0  0  0  0
    2.4273   -1.4960    1.3575 C   0  0  0  0  0  0  0  0  0  0  0  0
    1.9940   -1.8640    0.0816 C   0  0  0  0  0  0  0  0  0  0  0  0
    0.9449   -1.2024   -0.5085 C   0  0  0  0  0  0  0  0  0  0  0  0
    0.3135   -0.1720    0.1858 C   0  0  0  0  0  0  0  0  0  0  0  0
   -0.8397    0.5562   -0.4016 C   0  0  0  0  0  0  0  0  0  0  0  0
   -1.7241   -0.0738   -1.2892 C   0  0  0  0  0  0  0  0  0  0  0  0
   -2.7803    0.6138   -1.8488 C   0  0  0  0  0  0  0  0  0  0  0  0
   -2.9826    1.9545   -1.5265 C   0  0  0  0  0  0  0  0  0  0  0  0
   -4.0714    2.6719   -2.1104 C   0  0  0  0  0  0  0  0  0  0  0  0
   -4.9678    3.2664   -2.5921 N   0  0  0  0  0  0  0  0  0  0  0  0
   -2.1219    2.5917   -0.6314 C   0  0  0  0  0  0  0  0  0  0  0  0
   -1.0710    1.8953   -0.0695 C   0  0  0  0  0  0  0  0  0  0  0  0
    0.7188    0.2052    1.3987 N   0  0  0  0  0  0  0  0  0  0  0  0
    1.7311   -0.4372    1.9598 C   0  0  0  0  0  0  0  0  0  0  0  0
    3.1550   -2.9148    2.7669 H   0  0  0  0  0  0  0  0  0  0  0  0
    4.1550   -1.4751    2.6194 H   0  0  0  0  0  0  0  0  0  0  0  0
    4.1883   -2.7129    1.3553 H   0  0  0  0  0  0  0  0  0  0  0  0
    2.4892   -2.6658   -0.4424 H   0  0  0  0  0  0  0  0  0  0  0  0
    0.6124   -1.4629   -1.5065 H   0  0  0  0  0  0  0  0  0  0  0  0
   -1.5880   -1.1203   -1.5287 H   0  0  0  0  0  0  0  0  0  0  0  0
   -3.4548    0.1091   -2.5377 H   0  0  0  0  0  0  0  0  0  0  0  0
   -2.2802    3.6401   -0.3841 H   0  0  0  0  0  0  0  0  0  0  0  0
   -0.4148    2.3813    0.6452 H   0  0  0  0  0  0  0  0  0  0  0  0
    2.0217   -0.1019    2.9482 H   0  0  0  0  0  0  0  0  0  0  0  0
  1  2  1  0
  2  3  2  0
  3  4  1  0
  4  5  2  0
  5  6  1  0
  6  7  1  0
  7  8  2  0
  8  9  1  0
  9 10  1  0
 10 11  3  0
  9 12  2  0
 12 13  1  0
  5 14  1  0
 14 15  2  0
 15  2  1  0
 13  6  2  0
  1 16  1  0
  1 17  1  0
  1 18  1  0
  3 19  1  0
  4 20  1  0
  7 21  1  0
  8 22  1  0
 12 23  1  0
 13 24  1  0
 15 25  1  0
M  END
$$$$

     RDKit          3D

 25 26  0  0  0  0  0  0  0  0999 V2000
   -0.6850   -4.5258   -0.8428 C   0  0  0  0  0  0  0  0  0  0  0  0
   -0.4956   -3.0723   -0.5870 C   0  0  0  0  0  0  0  0  0  0  0  0
   -1.5611   -2.1693   -0.6477 C   0  0  0  0  0  0  0  0  0  0  0  0
   -1.3519   -0.8372   -0.3952 C   0  0  0  0  0  0  0  0  0  0  0  0
   -0.0668   -0.3897   -0.0775 C   0  0  0  0  0  0  0  0  0  0  0  0
    0.2261    1.0443    0.2030 C   0  0  0  0  0  0  0  0  0  0  0  0
   -0.7451    2.0484    0.0652 C   0  0  0  0  0  0  0  0  0  0  0  0
   -0.4537    3.3688    0.3362 C   0  0  0  0  0  0  0  0  0  0  0  0
    0.8231    3.7286    0.7489 C   0  0  0  0  0  0  0  0  0  0  0  0
    1.1255    5.0942    1.0389 C   0  0  0  0  0  0  0  0  0  0  0  0
    1.3763    6.2158    1.2873 N   0  0  0  0  0  0  0  0  0  0  0  0
    1.8078    2.7493    0.8826 C   0  0  0  0  0  0  0  0  0  0  0  0
    1.5119    1.4301    0.6140 C   0  0  0  0  0  0  0  0  0  0  0  0
    0.9624   -1.2393   -0.0087 N   0  0  0  0  0  0  0  0  0  0  0  0
    0.7517   -2.5254   -0.2544 C   0  0  0  0  0  0  0  0  0  0  0  0
   -1.1963   -4.9949   -0.0089 H   0  0  0  0  0  0  0  0  0  0  0  0
    0.2693   -5.0322   -0.9960 H   0  0  0  0  0  0  0  0  0  0  0  0
   -1.3095   -4.6862   -1.7185 H   0  0  0  0  0  0  0  0  0  0  0  0
   -2.5482   -2.5248   -0.8943 H   0  0  0  0  0  0  0  0  0  0  0  0
   -2.1763   -0.1415   -0.4343 H   0  0  0  0  0  0  0  0  0  0  0  0
   -1.7431    1.7969   -0.2657 H   0  0  0  0  0  0  0  0  0  0  0  0
   -1.2259    4.1239    0.2225 H   0  0  0  0  0  0  0  0  0  0  0  0
    2.8080    3.0326    1.2005 H   0  0  0  0  0  0  0  0  0  0  0  0
    2.2771    0.6718    0.7184 H   0  0  0  0  0  0  0  0  0  0  0  0
    1.6194   -3.1661   -0.1863 H   0  0  0  0  0  0  0  0  0  0  0  0
  1  2  1  0
  2  3  2  0
  3  4  1  0
  4  5  2  0
  5  6  1  0
  6  7  1  0
  7  8  2  0
  8  9  1  0
  9 10  1  0
 10 11  3  0
  9 12  2  0
 12 13  1  0
  5 14  1  0
 14 15  2  0
 15  2  1  0
 13  6  2  0
  1 16  1  0
  1 17  1  0
  1 18  1  0
  3 19  1  0
  4 20  1  0
  7 21  1  0
  8 22  1  0
 12 23  1  0
 13 24  1  0
 15 25  1  0
M  END
$$$$

     RDKit          3D

 25 26  0  0  0  0  0  0  0  0999 V2000
   -2.6689    0.1067   -3.8034 C   0  0  0  0  0  0  0  0  0  0  0  0
   -1.7898    0.0387   -2.6041 C   0  0  0  0  0  0  0  0  0  0  0  0
   -0.7016   -0.8311   -2.5140 C   0  0  0  0  0  0  0  0  0  0  0  0
    0.0735   -0.8526   -1.3798 C   0  0  0  0  0  0  0  0  0  0  0  0
   -0.2373    0.0054   -0.3251 C   0  0  0  0  0  0  0  0  0  0  0  0
    0.5777    0.0360    0.9178 C   0  0  0  0  0  0  0  0  0  0  0  0
    1.9242   -0.3573    0.9215 C   0  0  0  0  0  0  0  0  0  0  0  0
    2.6720   -0.3321    2.0803 C   0  0  0  0  0  0  0  0  0  0  0  0
    2.0897    0.0901    3.2719 C   0  0  0  0  0  0  0  0  0  0  0  0
    2.8603    0.1153    4.4736 C   0  0  0  0  0  0  0  0  0  0  0  0
    3.4921    0.1446    5.4682 N   0  0  0  0  0  0  0  0  0  0  0  0
    0.7523    0.4905    3.2860 C   0  0  0  0  0  0  0  0  0  0  0  0
    0.0122    0.4702    2.1224 C   0  0  0  0  0  0  0  0  0  0  0  0
   -1.2833    0.8328   -0.3849 N   0  0  0  0  0  0  0  0  0  0  0  0
   -2.0219    0.8493   -1.4827 C   0  0  0  0  0  0  0  0  0  0  0  0
   -2.8259    1.1391   -4.1082 H   0  0  0  0  0  0  0  0  0  0  0  0
   -3.6475   -0.3196   -3.5846 H   0  0  0  0  0  0  0  0  0  0  0  0
   -2.2403   -0.4471   -4.6418 H   0  0  0  0  0  0  0  0  0  0  0  0
   -0.4750   -1.4915   -3.3347 H   0  0  0  0  0  0  0  0  0  0  0  0
    0.9102   -1.5331   -1.2956 H   0  0  0  0  0  0  0  0  0  0  0  0
    2.3880   -0.6771   -0.0011 H   0  0  0  0  0  0  0  0  0  0  0  0
    3.7164   -0.6347    2.0594 H   0  0  0  0  0  0  0  0  0  0  0  0
    0.2984    0.8178    4.2187 H   0  0  0  0  0  0  0  0  0  0  0  0
   -1.0234    0.7936    2.1298 H   0  0  0  0  0  0  0  0  0  0  0  0
   -2.8521    1.5461   -1.4895 H   0  0  0  0  0  0  0  0  0  0  0  0
  1  2  1  0
  2  3  2  0
  3  4  1  0
  4  5  2  0
  5  6  1  0
  6  7  1  0
  7  8  2  0
  8  9  1  0
  9 10  1  0
 10 11  3  0
  9 12  2  0
 12 13  1  0
  5 14  1  0
 14 15  2  0
 15  2  1  0
 13  6  2  0
  1 16  1  0
  1 17  1  0
  1 18  1  0
  3 19  1  0
  4 20  1  0
  7 21  1  0
  8 22  1  0
 12 23  1  0
 13 24  1  0
 15 25  1  0
M  END
$$$$

     RDKit          3D

 25 26  0  0  0  0  0  0  0  0999 V2000
    2.1943   -3.5616    2.0283 C   0  0  0  0  0  0  0  0  0  0  0  0
    1.4980   -2.4310    1.3548 C   0  0  0  0  0  0  0  0  0  0  0  0
    1.9743   -1.8813    0.1598 C   0  0  0  0  0  0  0  0  0  0  0  0
    1.3163   -0.8307   -0.4265 C   0  0  0  0  0  0  0  0  0  0  0  0
    0.1757   -0.3115    0.1858 C   0  0  0  0  0  0  0  0  0  0  0  0
   -0.5628    0.8356   -0.4012 C   0  0  0  0  0  0  0  0  0  0  0  0
   -1.9300    0.9950   -0.1505 C   0  0  0  0  0  0  0  0  0  0  0  0
   -2.6398    2.0432   -0.7067 C   0  0  0  0  0  0  0  0  0  0  0  0
   -1.9850    2.9722   -1.5175 C   0  0  0  0  0  0  0  0  0  0  0  0
   -2.7095    4.0567   -2.0960 C   0  0  0  0  0  0  0  0  0  0  0  0
   -3.2989    4.9527   -2.5789 N   0  0  0  0  0  0  0  0  0  0  0  0
   -0.6202    2.8397   -1.7601 C   0  0  0  0  0  0  0  0  0  0  0  0
    0.0778    1.7912   -1.2102 C   0  0  0  0  0  0  0  0  0  0  0  0
   -0.3042   -0.8283    1.3167 N   0  0  0  0  0  0  0  0  0  0  0  0
    0.3358   -1.8468    1.8766 C   0  0  0  0  0  0  0  0  0  0  0  0
    3.1262   -3.2243    2.4768 H   0  0  0  0  0  0  0  0  0  0  0  0
    1.5771   -4.0000    2.8157 H   0  0  0  0  0  0  0  0  0  0  0  0
    2.4534   -4.3332    1.3077 H   0  0  0  0  0  0  0  0  0  0  0  0
    2.8598   -2.2934   -0.3004 H   0  0  0  0  0  0  0  0  0  0  0  0
    1.6616   -0.4149   -1.3646 H   0  0  0  0  0  0  0  0  0  0  0  0
   -2.4348    0.2806    0.4905 H   0  0  0  0  0  0  0  0  0  0  0  0
   -3.7068    2.1442   -0.5187 H   0  0  0  0  0  0  0  0  0  0  0  0
   -0.1079    3.5713   -2.3841 H   0  0  0  0  0  0  0  0  0  0  0  0
    1.1419    1.7012   -1.3907 H   0  0  0  0  0  0  0  0  0  0  0  0
   -0.0924   -2.2267    2.7935 H   0  0  0  0  0  0  0  0  0  0  0  0
  1  2  1  0
  2  3  2  0
  3  4  1  0
  4  5  2  0
  5  6  1  0
  6  7  1  0
  7  8  2  0
  8  9  1  0
  9 10  1  0
 10 11  3  0
  9 12  2  0
 12 13  1  0
  5 14  1  0
 14 15  2  0
 15  2  1  0
 13  6  2  0
  1 16  1  0
  1 17  1  0
  1 18  1  0
  3 19  1  0
  4 20  1  0
  7 21  1  0
  8 22  1  0
 12 23  1  0
 13 24  1  0
 15 25  1  0
M  END
$$$$

     RDKit          3D

 25 26  0  0  0  0  0  0  0  0999 V2000
    0.6486   -0.9409    4.5048 C   0  0  0  0  0  0  0  0  0  0  0  0
    0.4011   -0.6052    3.0752 C   0  0  0  0  0  0  0  0  0  0  0  0
   -0.0233    0.6580    2.6576 C   0  0  0  0  0  0  0  0  0  0  0  0
   -0.2075    0.9185    1.3212 C   0  0  0  0  0  0  0  0  0  0  0  0
    0.0317   -0.0912    0.3907 C   0  0  0  0  0  0  0  0  0  0  0  0
   -0.1320    0.1444   -1.0679 C   0  0  0  0  0  0  0  0  0  0  0  0
    0.0186    1.4237   -1.6246 C   0  0  0  0  0  0  0  0  0  0  0  0
   -0.1348    1.6329   -2.9788 C   0  0  0  0  0  0  0  0  0  0  0  0
   -0.4449    0.5635   -3.8150 C   0  0  0  0  0  0  0  0  0  0  0  0
   -0.6117    0.7725   -5.2163 C   0  0  0  0  0  0  0  0  0  0  0  0
   -0.7486    0.9366   -6.3724 N   0  0  0  0  0  0  0  0  0  0  0  0
   -0.5920   -0.7176   -3.2799 C   0  0  0  0  0  0  0  0  0  0  0  0
   -0.4317   -0.9206   -1.9258 C   0  0  0  0  0  0  0  0  0  0  0  0
    0.4146   -1.3127    0.7709 N   0  0  0  0  0  0  0  0  0  0  0  0
    0.5979   -1.5529    2.0589 C   0  0  0  0  0  0  0  0  0  0  0  0
    0.1657   -1.8808    4.7744 H   0  0  0  0  0  0  0  0  0  0  0  0
    1.7129   -1.0592    4.6904 H   0  0  0  0  0  0  0  0  0  0  0  0
    0.2740   -0.1564    5.1653 H   0  0  0  0  0  0  0  0  0  0  0  0
   -0.2129    1.4280    3.3863 H   0  0  0  0  0  0  0  0  0  0  0  0
   -0.5394    1.8928    0.9860 H   0  0  0  0  0  0  0  0  0  0  0  0
    0.2707    2.2590   -0.9842 H   0  0  0  0  0  0  0  0  0  0  0  0
   -0.0102    2.6316   -3.3909 H   0  0  0  0  0  0  0  0  0  0  0  0
   -0.8337   -1.5514   -3.9358 H   0  0  0  0  0  0  0  0  0  0  0  0
   -0.5309   -1.9174   -1.5100 H   0  0  0  0  0  0  0  0  0  0  0  0
    0.9177   -2.5552    2.3201 H   0  0  0  0  0  0  0  0  0  0  0  0
  1  2  1  0
  2  3  2  0
  3  4  1  0
  4  5  2  0
  5  6  1  0
  6  7  1  0
  7  8  2  0
  8  9  1  0
  9 10  1  0
 10 11  3  0
  9 12  2  0
 12 13  1  0
  5 14  1  0
 14 15  2  0
 15  2  1  0
 13  6  2  0
  1 16  1  0
  1 17  1  0
  1 18  1  0
  3 19  1  0
  4 20  1  0
  7 21  1  0
  8 22  1  0
 12 23  1  0
 13 24  1  0
 15 25  1  0
M  END
$$$$

     RDKit          3D

 25 26  0  0  0  0  0  0  0  0999 V2000
   -0.8019   -4.4357   -1.1289 C   0  0  0  0  0  0  0  0  0  0  0  0
   -0.5777   -3.0224   -0.7157 C   0  0  0  0  0  0  0  0  0  0  0  0
   -0.0952   -2.6830    0.5516 C   0  0  0  0  0  0  0  0  0  0  0  0
    0.1343   -1.3687    0.8733 C   0  0  0  0  0  0  0  0  0  0  0  0
   -0.1075   -0.3804   -0.0796 C   0  0  0  0  0  0  0  0  0  0  0  0
    0.1562    1.0549    0.2005 C   0  0  0  0  0  0  0  0  0  0  0  0
   -0.5592    2.0448   -0.4803 C   0  0  0  0  0  0  0  0  0  0  0  0
   -0.3257    3.3860   -0.2378 C   0  0  0  0  0  0  0  0  0  0  0  0
    0.6438    3.7662    0.6909 C   0  0  0  0  0  0  0  0  0  0  0  0
    0.8896    5.1496    0.9411 C   0  0  0  0  0  0  0  0  0  0  0  0
    1.0949    6.2918    1.1493 N   0  0  0  0  0  0  0  0  0  0  0  0
    1.3690    2.7917    1.3709 C   0  0  0  0  0  0  0  0  0  0  0  0
    1.1277    1.4598    1.1312 C   0  0  0  0  0  0  0  0  0  0  0  0
   -0.5885   -0.6800   -1.2888 N   0  0  0  0  0  0  0  0  0  0  0  0
   -0.8106   -1.9516   -1.5903 C   0  0  0  0  0  0  0  0  0  0  0  0
    0.1135   -4.8578   -1.5378 H   0  0  0  0  0  0  0  0  0  0  0  0
   -1.5763   -4.5054   -1.8958 H   0  0  0  0  0  0  0  0  0  0  0  0
   -1.0945   -5.0503   -0.2785 H   0  0  0  0  0  0  0  0  0  0  0  0
    0.0882   -3.4588    1.2787 H   0  0  0  0  0  0  0  0  0  0  0  0
    0.4859   -1.0943    1.8603 H   0  0  0  0  0  0  0  0  0  0  0  0
   -1.3045    1.7518   -1.2097 H   0  0  0  0  0  0  0  0  0  0  0  0
   -0.8942    4.1451   -0.7703 H   0  0  0  0  0  0  0  0  0  0  0  0
    2.1327    3.0845    2.0889 H   0  0  0  0  0  0  0  0  0  0  0  0
    1.6992    0.7074    1.6588 H   0  0  0  0  0  0  0  0  0  0  0  0
   -1.1992   -2.1453   -2.5820 H   0  0  0  0  0  0  0  0  0  0  0  0
  1  2  1  0
  2  3  2  0
  3  4  1  0
  4  5  2  0
  5  6  1  0
  6  7  1  0
  7  8  2  0
  8  9  1  0
  9 10  1  0
 10 11  3  0
  9 12  2  0
 12 13  1  0
  5 14  1  0
 14 15  2  0
 15  2  1  0
 13  6  2  0
  1 16  1  0
  1 17  1  0
  1 18  1  0
  3 19  1  0
  4 20  1  0
  7 21  1  0
  8 22  1  0
 12 23  1  0
 13 24  1  0
 15 25  1  0
M  END
$$$$

     RDKit          3D

 25 26  0  0  0  0  0  0  0  0999 V2000
   -0.4273   -3.3010    3.2457 C   0  0  0  0  0  0  0  0  0  0  0  0
   -0.2871   -2.2643    2.1870 C   0  0  0  0  0  0  0  0  0  0  0  0
   -0.5424   -2.5408    0.8402 C   0  0  0  0  0  0  0  0  0  0  0  0
   -0.4200   -1.5526   -0.1044 C   0  0  0  0  0  0  0  0  0  0  0  0
   -0.0402   -0.2717    0.2953 C   0  0  0  0  0  0  0  0  0  0  0  0
    0.1014    0.8331   -0.6885 C   0  0  0  0  0  0  0  0  0  0  0  0
   -0.6268    0.8487   -1.8873 C   0  0  0  0  0  0  0  0  0  0  0  0
   -0.4598    1.8618   -2.8084 C   0  0  0  0  0  0  0  0  0  0  0  0
    0.4298    2.9005   -2.5447 C   0  0  0  0  0  0  0  0  0  0  0  0
    0.6144    3.9438   -3.5023 C   0  0  0  0  0  0  0  0  0  0  0  0
    0.7673    4.8067   -4.2916 N   0  0  0  0  0  0  0  0  0  0  0  0
    1.1414    2.9162   -1.3451 C   0  0  0  0  0  0  0  0  0  0  0  0
    0.9755    1.8966   -0.4319 C   0  0  0  0  0  0  0  0  0  0  0  0
    0.2197    0.0107    1.5716 N   0  0  0  0  0  0  0  0  0  0  0  0
    0.0942   -0.9479    2.4793 C   0  0  0  0  0  0  0  0  0  0  0  0
    0.0284   -4.2392    2.9322 H   0  0  0  0  0  0  0  0  0  0  0  0
   -1.4757   -3.5077    3.4414 H   0  0  0  0  0  0  0  0  0  0  0  0
    0.0390   -2.9824    4.1801 H   0  0  0  0  0  0  0  0  0  0  0  0
   -0.8270   -3.5402    0.5483 H   0  0  0  0  0  0  0  0  0  0  0  0
   -0.6051   -1.7575   -1.1497 H   0  0  0  0  0  0  0  0  0  0  0  0
   -1.3364    0.0581   -2.0959 H   0  0  0  0  0  0  0  0  0  0  0  0
   -1.0275    1.8497   -3.7369 H   0  0  0  0  0  0  0  0  0  0  0  0
    1.8274    3.7351   -1.1350 H   0  0  0  0  0  0  0  0  0  0  0  0
    1.5272    1.9086    0.4996 H   0  0  0  0  0  0  0  0  0  0  0  0
    0.3097   -0.6642    3.5007 H   0  0  0  0  0  0  0  0  0  0  0  0
  1  2  1  0
  2  3  2  0
  3  4  1  0
  4  5  2  0
  5  6  1  0
  6  7  1  0
  7  8  2  0
  8  9  1  0
  9 10  1  0
 10 11  3  0
  9 12  2  0
 12 13  1  0
  5 14  1  0
 14 15  2  0
 15  2  1  0
 13  6  2  0
  1 16  1  0
  1 17  1  0
  1 18  1  0
  3 19  1  0
  4 20  1  0
  7 21  1  0
  8 22  1  0
 12 23  1  0
 13 24  1  0
 15 25  1  0
M  END
$$$$
