
     RDKit          3D

 26 27  0  0  0  0  0  0  0  0999 V2000
   -2.4570    3.8688    1.5967 C   0  0  0  0  0  0  0  0  0  0  0  0
   -1.6580    2.7161    1.0862 C   0  0  0  0  0  0  0  0  0  0  0  0
   -0.2885    2.7980    0.8226 C   0  0  0  0  0  0  0  0  0  0  0  0
    0.3952    1.6912    0.3737 C   0  0  0  0  0  0  0  0  0  0  0  0
   -0.2894    0.4953    0.1855 C   0  0  0  0  0  0  0  0  0  0  0  0
    0.4010   -0.7330   -0.2888 C   0  0  0  0  0  0  0  0  0  0  0  0
   -0.3346   -1.7543   -0.9000 C   0  0  0  0  0  0  0  0  0  0  0  0
    0.2850   -2.9069   -1.3445 C   0  0  0  0  0  0  0  0  0  0  0  0
    1.6570   -3.0450   -1.1801 C   0  0  0  0  0  0  0  0  0  0  0  0
    2.3058   -4.2519   -1.6480 N   0  0  0  0  0  0  0  0  0  0  0  0
    3.5008   -4.3325   -1.5271 O   0  0  0  0  0  0  0  0  0  0  0  0
    1.6290   -5.1171   -2.1330 O   0  0  0  0  0  0  0  0  0  0  0  0
    2.4104   -2.0510   -0.5773 C   0  0  0  0  0  0  0  0  0  0  0  0
    1.7824   -0.9090   -0.1305 C   0  0  0  0  0  0  0  0  0  0  0  0
   -1.5999    0.4008    0.4163 N   0  0  0  0  0  0  0  0  0  0  0  0
   -2.2537    1.4685    0.8522 C   0  0  0  0  0  0  0  0  0  0  0  0
   -3.3693    3.9958    1.0210 H   0  0  0  0  0  0  0  0  0  0  0  0
   -1.8909    4.7951    1.5481 H   0  0  0  0  0  0  0  0  0  0  0  0
   -2.7500    3.7036    2.6250 H   0  0  0  0  0  0  0  0  0  0  0  0
    0.2311    3.7280    0.9618 H   0  0  0  0  0  0  0  0  0  0  0  0
    1.4524    1.7466    0.1537 H   0  0  0  0  0  0  0  0  0  0  0  0
   -1.4014   -1.6379   -1.0222 H   0  0  0  0  0  0  0  0  0  0  0  0
   -0.2863   -3.6964   -1.8126 H   0  0  0  0  0  0  0  0  0  0  0  0
    3.4772   -2.1757   -0.4533 H   0  0  0  0  0  0  0  0  0  0  0  0
    2.3668   -0.1400    0.3533 H   0  0  0  0  0  0  0  0  0  0  0  0
   -3.3149    1.3428    1.0214 H   0  0  0  0  0  0  0  0  0  0  0  0
  1  2  1  0
  2  3  2  0
  3  4  1  0
  4  5  2  0
  5  6  1  0
  6  7  1  0
  7  8  2  0
  8  9  1  0
  9 10  1  0
 10 11  2  0
 10 12  1  0
  9 13  2  0
 13 14  1  0
  5 15  1  0
 15 16  2  0
 16  2  1  0
 14  6  2  0
  1 17  1  0
  1 18  1  0
  1 19  1  0
  3 20  1  0
  4 21  1  0
  7 22  1  0
  8 23  1  0
 13 24  1  0
 14 25  1  0
 16 26  1  0
M  CHG  2  10   1  12  -1
M  END
$$$$

     RDKit          3D

 26 27  0  0  0  0  0  0  0  0999 V2000
    0.7637    0.9507    4.7005 C   0  0  0  0  0  0  0  0  0  0  0  0
    0.4820    0.6492    3.2672 C   0  0  0  0  0  0  0  0  0  0  0  0
   -0.8113    0.4194    2.7916 C   0  0  0  0  0  0  0  0  0  0  0  0
   -1.0192    0.1524    1.4594 C   0  0  0  0  0  0  0  0  0  0  0  0
    0.0690    0.1112    0.5900 C   0  0  0  0  0  0  0  0  0  0  0  0
   -0.0903   -0.1808   -0.8624 C   0  0  0  0  0  0  0  0  0  0  0  0
   -1.3107   -0.6042   -1.4109 C   0  0  0  0  0  0  0  0  0  0  0  0
   -1.4371   -0.8617   -2.7588 C   0  0  0  0  0  0  0  0  0  0  0  0
   -0.3383   -0.6956   -3.5837 C   0  0  0  0  0  0  0  0  0  0  0  0
   -0.4736   -0.9542   -5.0014 N   0  0  0  0  0  0  0  0  0  0  0  0
    0.4975   -0.8059   -5.6963 O   0  0  0  0  0  0  0  0  0  0  0  0
   -1.5422   -1.2964   -5.4248 O   0  0  0  0  0  0  0  0  0  0  0  0
    0.8866   -0.2837   -3.0744 C   0  0  0  0  0  0  0  0  0  0  0  0
    1.0052   -0.0357   -1.7219 C   0  0  0  0  0  0  0  0  0  0  0  0
    1.3120    0.3398    1.0233 N   0  0  0  0  0  0  0  0  0  0  0  0
    1.5045    0.5964    2.3097 C   0  0  0  0  0  0  0  0  0  0  0  0
    1.7557    0.6120    4.9855 H   0  0  0  0  0  0  0  0  0  0  0  0
    0.7120    2.0148    4.8809 H   0  0  0  0  0  0  0  0  0  0  0  0
    0.0366    0.4778    5.3507 H   0  0  0  0  0  0  0  0  0  0  0  0
   -1.6463    0.4568    3.4689 H   0  0  0  0  0  0  0  0  0  0  0  0
   -2.0196   -0.0148    1.0901 H   0  0  0  0  0  0  0  0  0  0  0  0
   -2.1741   -0.7389   -0.7777 H   0  0  0  0  0  0  0  0  0  0  0  0
   -2.3802   -1.1944   -3.1620 H   0  0  0  0  0  0  0  0  0  0  0  0
    1.7320   -0.1569   -3.7378 H   0  0  0  0  0  0  0  0  0  0  0  0
    1.9579    0.2748   -1.3181 H   0  0  0  0  0  0  0  0  0  0  0  0
    2.5281    0.7683    2.6123 H   0  0  0  0  0  0  0  0  0  0  0  0
  1  2  1  0
  2  3  2  0
  3  4  1  0
  4  5  2  0
  5  6  1  0
  6  7  1  0
  7  8  2  0
  8  9  1  0
  9 10  1  0
 10 11  2  0
 10 12  1  0
  9 13  2  0
 13 14  1  0
  5 15  1  0
 15 16  2  0
 16  2  1  0
 14  6  2  0
  1 17  1  0
  1 18  1  0
  1 19  1  0
  3 20  1  0
  4 21  1  0
  7 22  1  0
  8 23  1  0
 13 24  1  0
 14 25  1  0
 16 26  1  0
M  CHG  2  10   1  12  -1
M  END
$$$$

     RDKit          3D

 26 27  0  0  0  0  0  0  0  0999 V2000
    1.6784    4.5489   -0.0990 C   0  0  0  0  0  0  0  0  0  0  0  0
    1.1407    3.1604   -0.0182 C   0  0  0  0  0  0  0  0  0  0  0  0
   -0.0104    2.8391    0.7039 C   0  0  0  0  0  0  0  0  0  0  0  0
   -0.4813    1.5458    0.7151 C   0  0  0  0  0  0  0  0  0  0  0  0
    0.2084    0.5657    0.0102 C   0  0  0  0  0  0  0  0  0  0  0  0
   -0.2592   -0.8452   -0.0189 C   0  0  0  0  0  0  0  0  0  0  0  0
   -1.6167   -1.1671    0.1121 C   0  0  0  0  0  0  0  0  0  0  0  0
   -2.0409   -2.4795    0.0826 C   0  0  0  0  0  0  0  0  0  0  0  0
   -1.1044   -3.4892   -0.0778 C   0  0  0  0  0  0  0  0  0  0  0  0
   -1.5454   -4.8677   -0.1053 N   0  0  0  0  0  0  0  0  0  0  0  0
   -0.7094   -5.7222   -0.2462 O   0  0  0  0  0  0  0  0  0  0  0  0
   -2.7174   -5.0995    0.0146 O   0  0  0  0  0  0  0  0  0  0  0  0
    0.2475   -3.2012   -0.2158 C   0  0  0  0  0  0  0  0  0  0  0  0
    0.6608   -1.8834   -0.1884 C   0  0  0  0  0  0  0  0  0  0  0  0
    1.3217    0.8461   -0.6663 N   0  0  0  0  0  0  0  0  0  0  0  0
    1.7638    2.0960   -0.6842 C   0  0  0  0  0  0  0  0  0  0  0  0
    1.2915    5.1688    0.7048 H   0  0  0  0  0  0  0  0  0  0  0  0
    2.7630    4.5516   -0.0439 H   0  0  0  0  0  0  0  0  0  0  0  0
    1.3987    5.0102   -1.0384 H   0  0  0  0  0  0  0  0  0  0  0  0
   -0.5224    3.6058    1.2572 H   0  0  0  0  0  0  0  0  0  0  0  0
   -1.3700    1.2861    1.2755 H   0  0  0  0  0  0  0  0  0  0  0  0
   -2.3473   -0.3801    0.2342 H   0  0  0  0  0  0  0  0  0  0  0  0
   -3.0899   -2.7141    0.1864 H   0  0  0  0  0  0  0  0  0  0  0  0
    0.9635   -4.0033   -0.3399 H   0  0  0  0  0  0  0  0  0  0  0  0
    1.7101   -1.6451   -0.3028 H   0  0  0  0  0  0  0  0  0  0  0  0
    2.6666    2.2730   -1.2516 H   0  0  0  0  0  0  0  0  0  0  0  0
  1  2  1  0
  2  3  2  0
  3  4  1  0
  4  5  2  0
  5  6  1  0
  6  7  1  0
  7  8  2  0
  8  9  1  0
  9 10  1  0
 10 11  2  0
 10 12  1  0
  9 13  2  0
 13 14  1  0
  5 15  1  0
 15 16  2  0
 16  2  1  0
 14  6  2  0
  1 17  1  0
  1 18  1  0
  1 19  1  0
  3 20  1  0
  4 21  1  0
  7 22  1  0
  8 23  1  0
 13 24  1  0
 14 25  1  0
 16 26  1  0
M  CHG  2  10   1  12  -1
M  END
$$$$

     RDKit          3D

 26 27  0  0  0  0  0  0  0  0999 V2000
   -3.2391   -3.3586    1.3405 C   0  0  0  0  0  0  0  0  0  0  0  0
   -2.2186   -2.3641    0.8991 C   0  0  0  0  0  0  0  0  0  0  0  0
   -1.7109   -2.3494   -0.4036 C   0  0  0  0  0  0  0  0  0  0  0  0
   -0.7870   -1.3997   -0.7721 C   0  0  0  0  0  0  0  0  0  0  0  0
   -0.3762   -0.4455    0.1576 C   0  0  0  0  0  0  0  0  0  0  0  0
    0.5909    0.6311   -0.1929 C   0  0  0  0  0  0  0  0  0  0  0  0
    0.8871    0.9572   -1.5225 C   0  0  0  0  0  0  0  0  0  0  0  0
    1.7906    1.9527   -1.8291 C   0  0  0  0  0  0  0  0  0  0  0  0
    2.4108    2.6439   -0.8016 C   0  0  0  0  0  0  0  0  0  0  0  0
    3.3615    3.6856   -1.1252 N   0  0  0  0  0  0  0  0  0  0  0  0
    3.8953    4.2653   -0.2172 O   0  0  0  0  0  0  0  0  0  0  0  0
    3.5750    3.9285   -2.2816 O   0  0  0  0  0  0  0  0  0  0  0  0
    2.1310    2.3536    0.5279 C   0  0  0  0  0  0  0  0  0  0  0  0
    1.2211    1.3578    0.8225 C   0  0  0  0  0  0  0  0  0  0  0  0
   -0.8324   -0.4572    1.4095 N   0  0  0  0  0  0  0  0  0  0  0  0
   -1.7189   -1.3803    1.7619 C   0  0  0  0  0  0  0  0  0  0  0  0
   -4.1932   -3.1553    0.8726 H   0  0  0  0  0  0  0  0  0  0  0  0
   -2.9527   -4.3606    1.0470 H   0  0  0  0  0  0  0  0  0  0  0  0
   -3.3781   -3.3357    2.4190 H   0  0  0  0  0  0  0  0  0  0  0  0
   -2.0460   -3.0834   -1.1157 H   0  0  0  0  0  0  0  0  0  0  0  0
   -0.3724   -1.3970   -1.7690 H   0  0  0  0  0  0  0  0  0  0  0  0
    0.3986    0.4308   -2.3273 H   0  0  0  0  0  0  0  0  0  0  0  0
    2.0104    2.1862   -2.8593 H   0  0  0  0  0  0  0  0  0  0  0  0
    2.6218    2.9030    1.3196 H   0  0  0  0  0  0  0  0  0  0  0  0
    0.9862    1.1330    1.8530 H   0  0  0  0  0  0  0  0  0  0  0  0
   -2.0548   -1.3418    2.7871 H   0  0  0  0  0  0  0  0  0  0  0  0
  1  2  1  0
  2  3  2  0
  3  4  1  0
  4  5  2  0
  5  6  1  0
  6  7  1  0
  7  8  2  0
  8  9  1  0
  9 10  1  0
 10 11  2  0
 10 12  1  0
  9 13  2  0
 13 14  1  0
  5 15  1  0
 15 16  2  0
 16  2  1  0
 14  6  2  0
  1 17  1  0
  1 18  1  0
  1 19  1  0
  3 20  1  0
  4 21  1  0
  7 22  1  0
  8 23  1  0
 13 24  1  0
 14 25  1  0
 16 26  1  0
M  CHG  2  10   1  12  -1
M  END
$$$$

     RDKit          3D

 26 27  0  0  0  0  0  0  0  0999 V2000
    3.0261    3.7361    0.6466 C   0  0  0  0  0  0  0  0  0  0  0  0
    2.0658    2.6163    0.4278 C   0  0  0  0  0  0  0  0  0  0  0  0
    1.1295    2.6264   -0.6105 C   0  0  0  0  0  0  0  0  0  0  0  0
    0.2834    1.5572   -0.7853 C   0  0  0  0  0  0  0  0  0  0  0  0
    0.3631    0.4729    0.0851 C   0  0  0  0  0  0  0  0  0  0  0  0
   -0.5340   -0.7038   -0.0547 C   0  0  0  0  0  0  0  0  0  0  0  0
   -1.8113   -0.5891   -0.6187 C   0  0  0  0  0  0  0  0  0  0  0  0
   -2.6321   -1.6895   -0.7479 C   0  0  0  0  0  0  0  0  0  0  0  0
   -2.1770   -2.9269   -0.3194 C   0  0  0  0  0  0  0  0  0  0  0  0
   -3.0276   -4.0857   -0.4812 N   0  0  0  0  0  0  0  0  0  0  0  0
   -2.6046   -5.1507   -0.1146 O   0  0  0  0  0  0  0  0  0  0  0  0
   -4.1116   -3.9346   -0.9742 O   0  0  0  0  0  0  0  0  0  0  0  0
   -0.9219   -3.0714    0.2569 C   0  0  0  0  0  0  0  0  0  0  0  0
   -0.1120   -1.9600    0.3893 C   0  0  0  0  0  0  0  0  0  0  0  0
    1.2552    0.4391    1.0728 N   0  0  0  0  0  0  0  0  0  0  0  0
    2.0679    1.4747    1.2406 C   0  0  0  0  0  0  0  0  0  0  0  0
    2.5639    4.6949    0.4353 H   0  0  0  0  0  0  0  0  0  0  0  0
    3.3938    3.7469    1.6688 H   0  0  0  0  0  0  0  0  0  0  0  0
    3.8747    3.6408   -0.0165 H   0  0  0  0  0  0  0  0  0  0  0  0
    1.0773    3.4730   -1.2743 H   0  0  0  0  0  0  0  0  0  0  0  0
   -0.4272    1.5406   -1.5996 H   0  0  0  0  0  0  0  0  0  0  0  0
   -2.1684    0.3759   -0.9497 H   0  0  0  0  0  0  0  0  0  0  0  0
   -3.6162   -1.5846   -1.1781 H   0  0  0  0  0  0  0  0  0  0  0  0
   -0.5848   -4.0442    0.5952 H   0  0  0  0  0  0  0  0  0  0  0  0
    0.8634   -2.0561    0.8431 H   0  0  0  0  0  0  0  0  0  0  0  0
    2.7646    1.4018    2.0632 H   0  0  0  0  0  0  0  0  0  0  0  0
  1  2  1  0
  2  3  2  0
  3  4  1  0
  4  5  2  0
  5  6  1  0
  6  7  1  0
  7  8  2  0
  8  9  1  0
  9 10  1  0
 10 11  2  0
 10 12  1  0
  9 13  2  0
 13 14  1  0
  5 15  1  0
 15 16  2  0
 16  2  1  0
 14  6  2  0
  1 17  1  0
  1 18  1  0
  1 19  1  0
  3 20  1  0
  4 21  1  0
  7 22  1  0
  8 23  1  0
 13 24  1  0
 14 25  1  0
 16 26  1  0
M  CHG  2  10   1  12  -1
M  END
$$$$

     RDKit          3D

 26 27  0  0  0  0  0  0  0  0999 V2000
    0.2346   -1.7821   -4.5063 C   0  0  0  0  0  0  0  0  0  0  0  0
    0.1855   -1.1897   -3.1380 C   0  0  0  0  0  0  0  0  0  0  0  0
    0.4089    0.1671   -2.8922 C   0  0  0  0  0  0  0  0  0  0  0  0
    0.3459    0.6565   -1.6073 C   0  0  0  0  0  0  0  0  0  0  0  0
    0.0445   -0.2123   -0.5630 C   0  0  0  0  0  0  0  0  0  0  0  0
   -0.0623    0.2671    0.8399 C   0  0  0  0  0  0  0  0  0  0  0  0
   -0.3811    1.5987    1.1371 C   0  0  0  0  0  0  0  0  0  0  0  0
   -0.4660    2.0344    2.4428 C   0  0  0  0  0  0  0  0  0  0  0  0
   -0.2359    1.1368    3.4726 C   0  0  0  0  0  0  0  0  0  0  0  0
   -0.3204    1.5988    4.8427 N   0  0  0  0  0  0  0  0  0  0  0  0
   -0.0906    0.8071    5.7172 O   0  0  0  0  0  0  0  0  0  0  0  0
   -0.6199    2.7444    5.0440 O   0  0  0  0  0  0  0  0  0  0  0  0
    0.0654   -0.1939    3.2108 C   0  0  0  0  0  0  0  0  0  0  0  0
    0.1440   -0.6211    1.8990 C   0  0  0  0  0  0  0  0  0  0  0  0
   -0.1485   -1.5146   -0.7741 N   0  0  0  0  0  0  0  0  0  0  0  0
   -0.0879   -1.9807   -2.0126 C   0  0  0  0  0  0  0  0  0  0  0  0
   -0.6666   -2.3417   -4.7174 H   0  0  0  0  0  0  0  0  0  0  0  0
    1.0692   -2.4714   -4.5962 H   0  0  0  0  0  0  0  0  0  0  0  0
    0.3529   -1.0127   -5.2651 H   0  0  0  0  0  0  0  0  0  0  0  0
    0.6399    0.8277   -3.7073 H   0  0  0  0  0  0  0  0  0  0  0  0
    0.5354    1.7027   -1.4040 H   0  0  0  0  0  0  0  0  0  0  0  0
   -0.5734    2.2978    0.3388 H   0  0  0  0  0  0  0  0  0  0  0  0
   -0.7078    3.0643    2.6589 H   0  0  0  0  0  0  0  0  0  0  0  0
    0.2305   -0.8840    4.0293 H   0  0  0  0  0  0  0  0  0  0  0  0
    0.3626   -1.6575    1.6834 H   0  0  0  0  0  0  0  0  0  0  0  0
   -0.2590   -3.0419   -2.1330 H   0  0  0  0  0  0  0  0  0  0  0  0
  1  2  1  0
  2  3  2  0
  3  4  1  0
  4  5  2  0
  5  6  1  0
  6  7  1  0
  7  8  2  0
  8  9  1  0
  9 10  1  0
 10 11  2  0
 10 12  1  0
  9 13  2  0
 13 14  1  0
  5 15  1  0
 15 16  2  0
 16  2  1  0
 14  6  2  0
  1 17  1  0
  1 18  1  0
  1 19  1  0
  3 20  1  0
  4 21  1  0
  7 22  1  0
  8 23  1  0
 13 24  1  0
 14 25  1  0
 16 26  1  0
M  CHG  2  10   1  12  -1
M  END
$$$$

     RDKit          3D

 26 27  0  0  0  0  0  0  0  0999 V2000
   -0.5109    3.2186   -3.5900 C   0  0  0  0  0  0  0  0  0  0  0  0
   -0.3998    2.2119   -2.4957 C   0  0  0  0  0  0  0  0  0  0  0  0
   -1.3465    1.2039   -2.2966 C   0  0  0  0  0  0  0  0  0  0  0  0
   -1.1887    0.3013   -1.2707 C   0  0  0  0  0  0  0  0  0  0  0  0
   -0.0741    0.3994   -0.4441 C   0  0  0  0  0  0  0  0  0  0  0  0
    0.1450   -0.5512    0.6755 C   0  0  0  0  0  0  0  0  0  0  0  0
   -0.9306   -1.1285    1.3638 C   0  0  0  0  0  0  0  0  0  0  0  0
   -0.7187   -2.0104    2.4027 C   0  0  0  0  0  0  0  0  0  0  0  0
    0.5820   -2.3295    2.7608 C   0  0  0  0  0  0  0  0  0  0  0  0
    0.8041   -3.2656    3.8431 N   0  0  0  0  0  0  0  0  0  0  0  0
    1.9425   -3.5488    4.1139 O   0  0  0  0  0  0  0  0  0  0  0  0
   -0.1483   -3.7125    4.4204 O   0  0  0  0  0  0  0  0  0  0  0  0
    1.6693   -1.7717    2.0989 C   0  0  0  0  0  0  0  0  0  0  0  0
    1.4447   -0.8787    1.0681 C   0  0  0  0  0  0  0  0  0  0  0  0
    0.8467    1.3447   -0.6251 N   0  0  0  0  0  0  0  0  0  0  0  0
    0.6838    2.2209   -1.6053 C   0  0  0  0  0  0  0  0  0  0  0  0
    0.2412    3.0445   -4.3479 H   0  0  0  0  0  0  0  0  0  0  0  0
   -0.3566    4.2221   -3.2078 H   0  0  0  0  0  0  0  0  0  0  0  0
   -1.4867    3.1742   -4.0694 H   0  0  0  0  0  0  0  0  0  0  0  0
   -2.1956    1.1316   -2.9530 H   0  0  0  0  0  0  0  0  0  0  0  0
   -1.9143   -0.4826   -1.1053 H   0  0  0  0  0  0  0  0  0  0  0  0
   -1.9429   -0.8750    1.0839 H   0  0  0  0  0  0  0  0  0  0  0  0
   -1.5562   -2.4397    2.9332 H   0  0  0  0  0  0  0  0  0  0  0  0
    2.6789   -2.0333    2.3933 H   0  0  0  0  0  0  0  0  0  0  0  0
    2.2812   -0.4240    0.5540 H   0  0  0  0  0  0  0  0  0  0  0  0
    1.4505    2.9786   -1.7007 H   0  0  0  0  0  0  0  0  0  0  0  0
  1  2  1  0
  2  3  2  0
  3  4  1  0
  4  5  2  0
  5  6  1  0
  6  7  1  0
  7  8  2  0
  8  9  1  0
  9 10  1  0
 10 11  2  0
 10 12  1  0
  9 13  2  0
 13 14  1  0
  5 15  1  0
 15 16  2  0
 16  2  1  0
 14  6  2  0
  1 17  1  0
  1 18  1  0
  1 19  1  0
  3 20  1  0
  4 21  1  0
  7 22  1  0
  8 23  1  0
 13 24  1  0
 14 25  1  0
 16 26  1  0
M  CHG  2  10   1  12  -1
M  END
$$$$

     RDKit          3D

 26 27  0  0  0  0  0  0  0  0999 V2000
    4.5097   -1.7807   -0.1230 C   0  0  0  0  0  0  0  0  0  0  0  0
    3.1305   -1.2117   -0.1212 C   0  0  0  0  0  0  0  0  0  0  0  0
    2.4698   -0.8561   -1.3013 C   0  0  0  0  0  0  0  0  0  0  0  0
    1.1937   -0.3474   -1.2500 C   0  0  0  0  0  0  0  0  0  0  0  0
    0.5691   -0.1974   -0.0147 C   0  0  0  0  0  0  0  0  0  0  0  0
   -0.8123    0.3370    0.0927 C   0  0  0  0  0  0  0  0  0  0  0  0
   -1.3183    1.2500   -0.8413 C   0  0  0  0  0  0  0  0  0  0  0  0
   -2.6073    1.7295   -0.7392 C   0  0  0  0  0  0  0  0  0  0  0  0
   -3.4060    1.2998    0.3098 C   0  0  0  0  0  0  0  0  0  0  0  0
   -4.7632    1.7948    0.4158 N   0  0  0  0  0  0  0  0  0  0  0  0
   -5.4337    1.4005    1.3353 O   0  0  0  0  0  0  0  0  0  0  0  0
   -5.1550    2.5770   -0.4067 O   0  0  0  0  0  0  0  0  0  0  0  0
   -2.9307    0.4013    1.2564 C   0  0  0  0  0  0  0  0  0  0  0  0
   -1.6357   -0.0681    1.1464 C   0  0  0  0  0  0  0  0  0  0  0  0
    1.1770   -0.5354    1.1194 N   0  0  0  0  0  0  0  0  0  0  0  0
    2.4107   -1.0180    1.0666 C   0  0  0  0  0  0  0  0  0  0  0  0
    5.1256   -1.3000   -0.8762 H   0  0  0  0  0  0  0  0  0  0  0  0
    4.9885   -1.6628    0.8468 H   0  0  0  0  0  0  0  0  0  0  0  0
    4.4844   -2.8338   -0.3631 H   0  0  0  0  0  0  0  0  0  0  0  0
    2.9642   -0.9844   -2.2505 H   0  0  0  0  0  0  0  0  0  0  0  0
    0.6676   -0.0790   -2.1553 H   0  0  0  0  0  0  0  0  0  0  0  0
   -0.6871    1.5963   -1.6490 H   0  0  0  0  0  0  0  0  0  0  0  0
   -2.9885    2.4305   -1.4661 H   0  0  0  0  0  0  0  0  0  0  0  0
   -3.5709    0.0786    2.0689 H   0  0  0  0  0  0  0  0  0  0  0  0
   -1.2467   -0.7557    1.8843 H   0  0  0  0  0  0  0  0  0  0  0  0
    2.8647   -1.2649    2.0155 H   0  0  0  0  0  0  0  0  0  0  0  0
  1  2  1  0
  2  3  2  0
  3  4  1  0
  4  5  2  0
  5  6  1  0
  6  7  1  0
  7  8  2  0
  8  9  1  0
  9 10  1  0
 10 11  2  0
 10 12  1  0
  9 13  2  0
 13 14  1  0
  5 15  1  0
 15 16  2  0
 16  2  1  0
 14  6  2  0
  1 17  1  0
  1 18  1  0
  1 19  1  0
  3 20  1  0
  4 21  1  0
  7 22  1  0
  8 23  1  0
 13 24  1  0
 14 25  1  0
 16 26  1  0
M  CHG  2  10   1  12  -1
M  END
$$$$

     RDKit          3D

 26 27  0  0  0  0  0  0  0  0999 V2000
    3.6767   -2.2076   -2.2753 C   0  0  0  0  0  0  0  0  0  0  0  0
    2.5810   -1.4958   -1.5548 C   0  0  0  0  0  0  0  0  0  0  0  0
    2.7181   -0.1933   -1.0699 C   0  0  0  0  0  0  0  0  0  0  0  0
    1.6644    0.4220   -0.4361 C   0  0  0  0  0  0  0  0  0  0  0  0
    0.4650   -0.2652   -0.2778 C   0  0  0  0  0  0  0  0  0  0  0  0
   -0.7052    0.3555    0.4003 C   0  0  0  0  0  0  0  0  0  0  0  0
   -1.7341   -0.4539    0.8970 C   0  0  0  0  0  0  0  0  0  0  0  0
   -2.8281    0.0977    1.5361 C   0  0  0  0  0  0  0  0  0  0  0  0
   -2.9007    1.4777    1.6819 C   0  0  0  0  0  0  0  0  0  0  0  0
   -4.0399    2.0583    2.3604 N   0  0  0  0  0  0  0  0  0  0  0  0
   -4.0623    3.2525    2.5043 O   0  0  0  0  0  0  0  0  0  0  0  0
   -4.9046    1.3248    2.7567 O   0  0  0  0  0  0  0  0  0  0  0  0
   -1.9026    2.3045    1.1912 C   0  0  0  0  0  0  0  0  0  0  0  0
   -0.8187    1.7442    0.5523 C   0  0  0  0  0  0  0  0  0  0  0  0
    0.3159   -1.5124   -0.7256 N   0  0  0  0  0  0  0  0  0  0  0  0
    1.3318   -2.0974   -1.3477 C   0  0  0  0  0  0  0  0  0  0  0  0
    3.6878   -3.2656   -2.0321 H   0  0  0  0  0  0  0  0  0  0  0  0
    4.6482   -1.7888   -2.0284 H   0  0  0  0  0  0  0  0  0  0  0  0
    3.5423   -2.1217   -3.3443 H   0  0  0  0  0  0  0  0  0  0  0  0
    3.6500    0.3299   -1.1870 H   0  0  0  0  0  0  0  0  0  0  0  0
    1.7663    1.4269   -0.0539 H   0  0  0  0  0  0  0  0  0  0  0  0
   -1.6682   -1.5254    0.7768 H   0  0  0  0  0  0  0  0  0  0  0  0
   -3.6186   -0.5343    1.9138 H   0  0  0  0  0  0  0  0  0  0  0  0
   -1.9700    3.3761    1.3088 H   0  0  0  0  0  0  0  0  0  0  0  0
   -0.0492    2.3931    0.1573 H   0  0  0  0  0  0  0  0  0  0  0  0
    1.1547   -3.1020   -1.7039 H   0  0  0  0  0  0  0  0  0  0  0  0
  1  2  1  0
  2  3  2  0
  3  4  1  0
  4  5  2  0
  5  6  1  0
  6  7  1  0
  7  8  2  0
  8  9  1  0
  9 10  1  0
 10 11  2  0
 10 12  1  0
  9 13  2  0
 13 14  1  0
  5 15  1  0
 15 16  2  0
 16  2  1  0
 14  6  2  0
  1 17  1  0
  1 18  1  0
  1 19  1  0
  3 20  1  0
  4 21  1  0
  7 22  1  0
  8 23  1  0
 13 24  1  0
 14 25  1  0
 16 26  1  0
M  CHG  2  10   1  12  -1
M  END
$$$$

     RDKit          3D

 26 27  0  0  0  0  0  0  0  0999 V2000
    1.0607   -1.7160   -4.4107 C   0  0  0  0  0  0  0  0  0  0  0  0
    0.7710   -1.1998   -3.0427 C   0  0  0  0  0  0  0  0  0  0  0  0
    1.7896   -0.8777   -2.1395 C   0  0  0  0  0  0  0  0  0  0  0  0
    1.4770   -0.3957   -0.8908 C   0  0  0  0  0  0  0  0  0  0  0  0
    0.1396   -0.2276   -0.5401 C   0  0  0  0  0  0  0  0  0  0  0  0
   -0.2550    0.3120    0.7878 C   0  0  0  0  0  0  0  0  0  0  0  0
    0.5721    1.1918    1.4976 C   0  0  0  0  0  0  0  0  0  0  0  0
    0.1965    1.6813    2.7320 C   0  0  0  0  0  0  0  0  0  0  0  0
   -1.0212    1.2938    3.2695 C   0  0  0  0  0  0  0  0  0  0  0  0
   -1.4109    1.8001    4.5693 N   0  0  0  0  0  0  0  0  0  0  0  0
   -2.4861    1.4756    5.0016 O   0  0  0  0  0  0  0  0  0  0  0  0
   -0.6541    2.5250    5.1520 O   0  0  0  0  0  0  0  0  0  0  0  0
   -1.8681    0.4333    2.5841 C   0  0  0  0  0  0  0  0  0  0  0  0
   -1.4814   -0.0503    1.3495 C   0  0  0  0  0  0  0  0  0  0  0  0
   -0.8442   -0.5495   -1.3764 N   0  0  0  0  0  0  0  0  0  0  0  0
   -0.5385   -1.0111   -2.5826 C   0  0  0  0  0  0  0  0  0  0  0  0
    1.5796   -2.6658   -4.3565 H   0  0  0  0  0  0  0  0  0  0  0  0
    1.7091   -1.0360   -4.9487 H   0  0  0  0  0  0  0  0  0  0  0  0
    0.1516   -1.8527   -4.9889 H   0  0  0  0  0  0  0  0  0  0  0  0
    2.8187   -1.0151   -2.4266 H   0  0  0  0  0  0  0  0  0  0  0  0
    2.2580   -0.1546   -0.1799 H   0  0  0  0  0  0  0  0  0  0  0  0
    1.5159    1.5003    1.0725 H   0  0  0  0  0  0  0  0  0  0  0  0
    0.8451    2.3563    3.2708 H   0  0  0  0  0  0  0  0  0  0  0  0
   -2.8184    0.1485    3.0158 H   0  0  0  0  0  0  0  0  0  0  0  0
   -2.1335   -0.7195    0.8045 H   0  0  0  0  0  0  0  0  0  0  0  0
   -1.3733   -1.2466   -3.2238 H   0  0  0  0  0  0  0  0  0  0  0  0
  1  2  1  0
  2  3  2  0
  3  4  1  0
  4  5  2  0
  5  6  1  0
  6  7  1  0
  7  8  2  0
  8  9  1  0
  9 10  1  0
 10 11  2  0
 10 12  1  0
  9 13  2  0
 13 14  1  0
  5 15  1  0
 15 16  2  0
 16  2  1  0
 14  6  2  0
  1 17  1  0
  1 18  1  0
  1 19  1  0
  3 20  1  0
  4 21  1  0
  7 22  1  0
  8 23  1  0
 13 24  1  0
 14 25  1  0
 16 26  1  0
M  CHG  2  10   1  12  -1
M  END
$$$$

     RDKit          3D

 26 27  0  0  0  0  0  0  0  0999 V2000
   -3.6935    0.3725    3.1226 C   0  0  0  0  0  0  0  0  0  0  0  0
   -2.5206    0.2505    2.2094 C   0  0  0  0  0  0  0  0  0  0  0  0
   -1.3718   -0.4695    2.5421 C   0  0  0  0  0  0  0  0  0  0  0  0
   -0.3339   -0.5708    1.6429 C   0  0  0  0  0  0  0  0  0  0  0  0
   -0.4437    0.0516    0.4043 C   0  0  0  0  0  0  0  0  0  0  0  0
    0.6387   -0.0397   -0.6102 C   0  0  0  0  0  0  0  0  0  0  0  0
    1.5098   -1.1365   -0.6581 C   0  0  0  0  0  0  0  0  0  0  0  0
    2.5181   -1.2014   -1.5974 C   0  0  0  0  0  0  0  0  0  0  0  0
    2.6606   -0.1665   -2.5084 C   0  0  0  0  0  0  0  0  0  0  0  0
    3.7186   -0.2323   -3.4947 N   0  0  0  0  0  0  0  0  0  0  0  0
    3.8166    0.6817   -4.2710 O   0  0  0  0  0  0  0  0  0  0  0  0
    4.4409   -1.1909   -3.5018 O   0  0  0  0  0  0  0  0  0  0  0  0
    1.8045    0.9268   -2.4953 C   0  0  0  0  0  0  0  0  0  0  0  0
    0.7971    0.9799   -1.5522 C   0  0  0  0  0  0  0  0  0  0  0  0
   -1.5200    0.7670    0.0787 N   0  0  0  0  0  0  0  0  0  0  0  0
   -2.5194    0.8524    0.9427 C   0  0  0  0  0  0  0  0  0  0  0  0
   -4.5600   -0.1177    2.6960 H   0  0  0  0  0  0  0  0  0  0  0  0
   -3.9597    1.4127    3.2820 H   0  0  0  0  0  0  0  0  0  0  0  0
   -3.4904   -0.0774    4.0917 H   0  0  0  0  0  0  0  0  0  0  0  0
   -1.2960   -0.9417    3.5040 H   0  0  0  0  0  0  0  0  0  0  0  0
    0.5654   -1.1171    1.8926 H   0  0  0  0  0  0  0  0  0  0  0  0
    1.3863   -1.9529    0.0382 H   0  0  0  0  0  0  0  0  0  0  0  0
    3.1864   -2.0495   -1.6250 H   0  0  0  0  0  0  0  0  0  0  0  0
    1.9297    1.7224   -3.2178 H   0  0  0  0  0  0  0  0  0  0  0  0
    0.1142    1.8173   -1.5389 H   0  0  0  0  0  0  0  0  0  0  0  0
   -3.3777    1.4291    0.6236 H   0  0  0  0  0  0  0  0  0  0  0  0
  1  2  1  0
  2  3  2  0
  3  4  1  0
  4  5  2  0
  5  6  1  0
  6  7  1  0
  7  8  2  0
  8  9  1  0
  9 10  1  0
 10 11  2  0
 10 12  1  0
  9 13  2  0
 13 14  1  0
  5 15  1  0
 15 16  2  0
 16  2  1  0
 14  6  2  0
  1 17  1  0
  1 18  1  0
  1 19  1  0
  3 20  1  0
  4 21  1  0
  7 22  1  0
  8 23  1  0
 13 24  1  0
 14 25  1  0
 16 26  1  0
M  CHG  2  10   1  12  -1
M  END
$$$$

     RDKit          3D

 26 27  0  0  0  0  0  0  0  0999 V2000
   -0.8199    4.0198    2.5941 C   0  0  0  0  0  0  0  0  0  0  0  0
   -0.5578    2.8103    1.7622 C   0  0  0  0  0  0  0  0  0  0  0  0
   -0.4550    2.8674    0.3690 C   0  0  0  0  0  0  0  0  0  0  0  0
   -0.2293    1.7196   -0.3546 C   0  0  0  0  0  0  0  0  0  0  0  0
   -0.1023    0.5049    0.3143 C   0  0  0  0  0  0  0  0  0  0  0  0
    0.1521   -0.7643   -0.4182 C   0  0  0  0  0  0  0  0  0  0  0  0
    0.7732   -0.7754   -1.6746 C   0  0  0  0  0  0  0  0  0  0  0  0
    1.0030   -1.9579   -2.3450 C   0  0  0  0  0  0  0  0  0  0  0  0
    0.6137   -3.1524   -1.7615 C   0  0  0  0  0  0  0  0  0  0  0  0
    0.8561   -4.3925   -2.4660 N   0  0  0  0  0  0  0  0  0  0  0  0
    0.4936   -5.4153   -1.9488 O   0  0  0  0  0  0  0  0  0  0  0  0
    1.4112   -4.3478   -3.5291 O   0  0  0  0  0  0  0  0  0  0  0  0
   -0.0000   -3.1779   -0.5163 C   0  0  0  0  0  0  0  0  0  0  0  0
   -0.2218   -1.9870    0.1487 C   0  0  0  0  0  0  0  0  0  0  0  0
   -0.2089    0.4281    1.6387 N   0  0  0  0  0  0  0  0  0  0  0  0
   -0.4168    1.5399    2.3342 C   0  0  0  0  0  0  0  0  0  0  0  0
   -0.5419    3.8566    3.6308 H   0  0  0  0  0  0  0  0  0  0  0  0
   -1.8713    4.2812    2.5635 H   0  0  0  0  0  0  0  0  0  0  0  0
   -0.2691    4.8734    2.2185 H   0  0  0  0  0  0  0  0  0  0  0  0
   -0.5586    3.8116   -0.1364 H   0  0  0  0  0  0  0  0  0  0  0  0
   -0.1529    1.7513   -1.4326 H   0  0  0  0  0  0  0  0  0  0  0  0
    1.0890    0.1535   -2.1254 H   0  0  0  0  0  0  0  0  0  0  0  0
    1.4799   -1.9507   -3.3140 H   0  0  0  0  0  0  0  0  0  0  0  0
   -0.2982   -4.1238   -0.0795 H   0  0  0  0  0  0  0  0  0  0  0  0
   -0.6897   -1.9942    1.1229 H   0  0  0  0  0  0  0  0  0  0  0  0
   -0.4780    1.4217    3.4050 H   0  0  0  0  0  0  0  0  0  0  0  0
  1  2  1  0
  2  3  2  0
  3  4  1  0
  4  5  2  0
  5  6  1  0
  6  7  1  0
  7  8  2  0
  8  9  1  0
  9 10  1  0
 10 11  2  0
 10 12  1  0
  9 13  2  0
 13 14  1  0
  5 15  1  0
 15 16  2  0
 16  2  1  0
 14  6  2  0
  1 17  1  0
  1 18  1  0
  1 19  1  0
  3 20  1  0
  4 21  1  0
  7 22  1  0
  8 23  1  0
 13 24  1  0
 14 25  1  0
 16 26  1  0
M  CHG  2  10   1  12  -1
M  END
$$$$
