
     RDKit          3D

 28 29  0  0  0  0  0  0  0  0999 V2000
    3.0937   -2.1890   -3.8822 C   0  0  0  0  0  0  0  0  0  0  0  0
    3.2159   -0.9644   -3.1677 O   0  0  0  0  0  0  0  0  0  0  0  0
    2.2617   -0.6861   -2.2484 C   0  0  0  0  0  0  0  0  0  0  0  0
    2.4138    0.5051   -1.5286 C   0  0  0  0  0  0  0  0  0  0  0  0
    1.4939    0.8609   -0.5657 C   0  0  0  0  0  0  0  0  0  0  0  0
    0.3925    0.0492   -0.2860 C   0  0  0  0  0  0  0  0  0  0  0  0
   -0.5813    0.4458    0.7661 C   0  0  0  0  0  0  0  0  0  0  0  0
   -1.5164   -0.4453    1.2874 C   0  0  0  0  0  0  0  0  0  0  0  0
   -2.4046   -0.0200    2.2491 C   0  0  0  0  0  0  0  0  0  0  0  0
   -2.3674    1.2992    2.7019 C   0  0  0  0  0  0  0  0  0  0  0  0
   -3.3214    1.8260    3.7170 C   0  0  0  0  0  0  0  0  0  0  0  0
   -1.3847    2.1095    2.1316 C   0  0  0  0  0  0  0  0  0  0  0  0
   -0.5214    1.7094    1.2015 N   0  0  0  0  0  0  0  0  0  0  0  0
    0.2442   -1.1268   -1.0272 C   0  0  0  0  0  0  0  0  0  0  0  0
    1.1605   -1.4966   -1.9861 C   0  0  0  0  0  0  0  0  0  0  0  0
    3.9487   -2.2389   -4.5532 H   0  0  0  0  0  0  0  0  0  0  0  0
    3.1172   -3.0436   -3.2087 H   0  0  0  0  0  0  0  0  0  0  0  0
    2.1784   -2.2107   -4.4633 H   0  0  0  0  0  0  0  0  0  0  0  0
    3.2637    1.1419   -1.7387 H   0  0  0  0  0  0  0  0  0  0  0  0
    1.6225    1.7851   -0.0217 H   0  0  0  0  0  0  0  0  0  0  0  0
   -1.5475   -1.4697    0.9478 H   0  0  0  0  0  0  0  0  0  0  0  0
   -3.1240   -0.7097    2.6586 H   0  0  0  0  0  0  0  0  0  0  0  0
   -4.1049    2.4140    3.2477 H   0  0  0  0  0  0  0  0  0  0  0  0
   -3.8048    1.0211    4.2673 H   0  0  0  0  0  0  0  0  0  0  0  0
   -2.8212    2.4736    4.4337 H   0  0  0  0  0  0  0  0  0  0  0  0
   -1.2945    3.1399    2.4465 H   0  0  0  0  0  0  0  0  0  0  0  0
   -0.6102   -1.7634   -0.8492 H   0  0  0  0  0  0  0  0  0  0  0  0
    0.9977   -2.4164   -2.5292 H   0  0  0  0  0  0  0  0  0  0  0  0
  1  2  1  0
  2  3  1  0
  3  4  1  0
  4  5  2  0
  5  6  1  0
  6  7  1  0
  7  8  2  0
  8  9  1  0
  9 10  2  0
 10 11  1  0
 10 12  1  0
 12 13  2  0
  6 14  2  0
 14 15  1  0
 15  3  2  0
 13  7  1  0
  1 16  1  0
  1 17  1  0
  1 18  1  0
  4 19  1  0
  5 20  1  0
  8 21  1  0
  9 22  1  0
 11 23  1  0
 11 24  1  0
 11 25  1  0
 12 26  1  0
 14 27  1  0
 15 28  1  0
M  END
$$$$

     RDKit          3D

 28 29  0  0  0  0  0  0  0  0999 V2000
    3.6420   -3.0576    2.6083 C   0  0  0  0  0  0  0  0  0  0  0  0
    3.3823   -2.8887    1.2219 O   0  0  0  0  0  0  0  0  0  0  0  0
    2.3995   -2.0259    0.8721 C   0  0  0  0  0  0  0  0  0  0  0  0
    1.6370   -1.2978    1.7812 C   0  0  0  0  0  0  0  0  0  0  0  0
    0.6501   -0.4472    1.3214 C   0  0  0  0  0  0  0  0  0  0  0  0
    0.3846   -0.3029   -0.0421 C   0  0  0  0  0  0  0  0  0  0  0  0
   -0.6911    0.5951   -0.5399 C   0  0  0  0  0  0  0  0  0  0  0  0
   -1.7226    1.0396    0.2857 C   0  0  0  0  0  0  0  0  0  0  0  0
   -2.6895    1.8777   -0.2204 C   0  0  0  0  0  0  0  0  0  0  0  0
   -2.6390    2.2769   -1.5574 C   0  0  0  0  0  0  0  0  0  0  0  0
   -3.6662    3.1728   -2.1578 C   0  0  0  0  0  0  0  0  0  0  0  0
   -1.5757    1.7695   -2.3037 C   0  0  0  0  0  0  0  0  0  0  0  0
   -0.6361    0.9567   -1.8259 N   0  0  0  0  0  0  0  0  0  0  0  0
    1.1657   -1.0276   -0.9405 C   0  0  0  0  0  0  0  0  0  0  0  0
    2.1529   -1.8789   -0.4978 C   0  0  0  0  0  0  0  0  0  0  0  0
    4.4614   -3.7666    2.6847 H   0  0  0  0  0  0  0  0  0  0  0  0
    2.7712   -3.4521    3.1250 H   0  0  0  0  0  0  0  0  0  0  0  0
    3.9434   -2.1190    3.0691 H   0  0  0  0  0  0  0  0  0  0  0  0
    1.7952   -1.3817    2.8464 H   0  0  0  0  0  0  0  0  0  0  0  0
    0.0812    0.1215    2.0390 H   0  0  0  0  0  0  0  0  0  0  0  0
   -1.7779    0.7147    1.3133 H   0  0  0  0  0  0  0  0  0  0  0  0
   -3.4903    2.2272    0.4142 H   0  0  0  0  0  0  0  0  0  0  0  0
   -4.0437    3.8847   -1.4286 H   0  0  0  0  0  0  0  0  0  0  0  0
   -3.2697    3.7309   -3.0033 H   0  0  0  0  0  0  0  0  0  0  0  0
   -4.5202    2.6023   -2.5140 H   0  0  0  0  0  0  0  0  0  0  0  0
   -1.4821    2.0341   -3.3472 H   0  0  0  0  0  0  0  0  0  0  0  0
    0.9900   -0.9126   -2.0025 H   0  0  0  0  0  0  0  0  0  0  0  0
    2.7478   -2.4449   -1.2013 H   0  0  0  0  0  0  0  0  0  0  0  0
  1  2  1  0
  2  3  1  0
  3  4  1  0
  4  5  2  0
  5  6  1  0
  6  7  1  0
  7  8  2  0
  8  9  1  0
  9 10  2  0
 10 11  1  0
 10 12  1  0
 12 13  2  0
  6 14  2  0
 14 15  1  0
 15  3  2  0
 13  7  1  0
  1 16  1  0
  1 17  1  0
  1 18  1  0
  4 19  1  0
  5 20  1  0
  8 21  1  0
  9 22  1  0
 11 23  1  0
 11 24  1  0
 11 25  1  0
 12 26  1  0
 14 27  1  0
 15 28  1  0
M  END
$$$$

     RDKit          3D

 28 29  0  0  0  0  0  0  0  0999 V2000
   -1.4648    4.7463   -2.1894 C   0  0  0  0  0  0  0  0  0  0  0  0
   -1.2508    3.4686   -2.7716 O   0  0  0  0  0  0  0  0  0  0  0  0
   -0.8923    2.4579   -1.9461 C   0  0  0  0  0  0  0  0  0  0  0  0
   -0.7153    2.5893   -0.5707 C   0  0  0  0  0  0  0  0  0  0  0  0
   -0.3319    1.4942    0.1823 C   0  0  0  0  0  0  0  0  0  0  0  0
   -0.1325    0.2417   -0.4005 C   0  0  0  0  0  0  0  0  0  0  0  0
    0.2694   -0.9470    0.3977 C   0  0  0  0  0  0  0  0  0  0  0  0
    0.1016   -1.0000    1.7790 C   0  0  0  0  0  0  0  0  0  0  0  0
    0.5157   -2.1134    2.4745 C   0  0  0  0  0  0  0  0  0  0  0  0
    1.0944   -3.1892    1.7956 C   0  0  0  0  0  0  0  0  0  0  0  0
    1.5805   -4.4029    2.5075 C   0  0  0  0  0  0  0  0  0  0  0  0
    1.1981   -3.0477    0.4125 C   0  0  0  0  0  0  0  0  0  0  0  0
    0.8014   -1.9767   -0.2695 N   0  0  0  0  0  0  0  0  0  0  0  0
   -0.3107    0.1275   -1.7783 C   0  0  0  0  0  0  0  0  0  0  0  0
   -0.6824    1.2109   -2.5417 C   0  0  0  0  0  0  0  0  0  0  0  0
   -1.7369    5.4117   -3.0058 H   0  0  0  0  0  0  0  0  0  0  0  0
   -0.5590    5.1127   -1.7156 H   0  0  0  0  0  0  0  0  0  0  0  0
   -2.2738    4.7174   -1.4645 H   0  0  0  0  0  0  0  0  0  0  0  0
   -0.8671    3.5353   -0.0709 H   0  0  0  0  0  0  0  0  0  0  0  0
   -0.1753    1.6263    1.2423 H   0  0  0  0  0  0  0  0  0  0  0  0
   -0.3607   -0.1767    2.3045 H   0  0  0  0  0  0  0  0  0  0  0  0
    0.3926   -2.1605    3.5449 H   0  0  0  0  0  0  0  0  0  0  0  0
    2.4512   -4.1732    3.1158 H   0  0  0  0  0  0  0  0  0  0  0  0
    1.8584   -5.1981    1.8188 H   0  0  0  0  0  0  0  0  0  0  0  0
    0.8244   -4.7885    3.1843 H   0  0  0  0  0  0  0  0  0  0  0  0
    1.6256   -3.8459   -0.1760 H   0  0  0  0  0  0  0  0  0  0  0  0
   -0.1453   -0.8317   -2.2479 H   0  0  0  0  0  0  0  0  0  0  0  0
   -0.8144    1.1118   -3.6110 H   0  0  0  0  0  0  0  0  0  0  0  0
  1  2  1  0
  2  3  1  0
  3  4  1  0
  4  5  2  0
  5  6  1  0
  6  7  1  0
  7  8  2  0
  8  9  1  0
  9 10  2  0
 10 11  1  0
 10 12  1  0
 12 13  2  0
  6 14  2  0
 14 15  1  0
 15  3  2  0
 13  7  1  0
  1 16  1  0
  1 17  1  0
  1 18  1  0
  4 19  1  0
  5 20  1  0
  8 21  1  0
  9 22  1  0
 11 23  1  0
 11 24  1  0
 11 25  1  0
 12 26  1  0
 14 27  1  0
 15 28  1  0
M  END
$$$$

     RDKit          3D

 28 29  0  0  0  0  0  0  0  0999 V2000
   -1.2976   -2.8725    4.4217 C   0  0  0  0  0  0  0  0  0  0  0  0
   -1.0666   -1.4826    4.2382 O   0  0  0  0  0  0  0  0  0  0  0  0
   -0.7306   -1.0638    2.9950 C   0  0  0  0  0  0  0  0  0  0  0  0
   -0.5148    0.3058    2.8360 C   0  0  0  0  0  0  0  0  0  0  0  0
   -0.1898    0.8246    1.6062 C   0  0  0  0  0  0  0  0  0  0  0  0
   -0.0732    0.0053    0.4835 C   0  0  0  0  0  0  0  0  0  0  0  0
    0.2563    0.5496   -0.8633 C   0  0  0  0  0  0  0  0  0  0  0  0
    0.2497    1.9155   -1.1363 C   0  0  0  0  0  0  0  0  0  0  0  0
    0.5694    2.3644   -2.3955 C   0  0  0  0  0  0  0  0  0  0  0  0
    0.8979    1.4518   -3.3999 C   0  0  0  0  0  0  0  0  0  0  0  0
    1.2498    1.8928   -4.7772 C   0  0  0  0  0  0  0  0  0  0  0  0
    0.8702    0.1030   -3.0318 C   0  0  0  0  0  0  0  0  0  0  0  0
    0.5572   -0.3420   -1.8178 N   0  0  0  0  0  0  0  0  0  0  0  0
   -0.2699   -1.3660    0.6582 C   0  0  0  0  0  0  0  0  0  0  0  0
   -0.5955   -1.9014    1.8879 C   0  0  0  0  0  0  0  0  0  0  0  0
   -1.5748   -3.0045    5.4653 H   0  0  0  0  0  0  0  0  0  0  0  0
   -0.4051   -3.4487    4.2076 H   0  0  0  0  0  0  0  0  0  0  0  0
   -2.1138   -3.2244    3.7951 H   0  0  0  0  0  0  0  0  0  0  0  0
   -0.5989    0.9592    3.6922 H   0  0  0  0  0  0  0  0  0  0  0  0
   -0.0156    1.8847    1.5201 H   0  0  0  0  0  0  0  0  0  0  0  0
   -0.0101    2.6238   -0.3665 H   0  0  0  0  0  0  0  0  0  0  0  0
    0.5660    3.4196   -2.6125 H   0  0  0  0  0  0  0  0  0  0  0  0
    1.6277    1.0694   -5.3819 H   0  0  0  0  0  0  0  0  0  0  0  0
    2.0103    2.6701   -4.7593 H   0  0  0  0  0  0  0  0  0  0  0  0
    0.3898    2.3163   -5.2838 H   0  0  0  0  0  0  0  0  0  0  0  0
    1.1141   -0.6590   -3.7604 H   0  0  0  0  0  0  0  0  0  0  0  0
   -0.1614   -2.0201   -0.1963 H   0  0  0  0  0  0  0  0  0  0  0  0
   -0.7407   -2.9711    1.9754 H   0  0  0  0  0  0  0  0  0  0  0  0
  1  2  1  0
  2  3  1  0
  3  4  1  0
  4  5  2  0
  5  6  1  0
  6  7  1  0
  7  8  2  0
  8  9  1  0
  9 10  2  0
 10 11  1  0
 10 12  1  0
 12 13  2  0
  6 14  2  0
 14 15  1  0
 15  3  2  0
 13  7  1  0
  1 16  1  0
  1 17  1  0
  1 18  1  0
  4 19  1  0
  5 20  1  0
  8 21  1  0
  9 22  1  0
 11 23  1  0
 11 24  1  0
 11 25  1  0
 12 26  1  0
 14 27  1  0
 15 28  1  0
M  END
$$$$

     RDKit          3D

 28 29  0  0  0  0  0  0  0  0999 V2000
    2.2916   -2.9672   -3.9142 C   0  0  0  0  0  0  0  0  0  0  0  0
    1.0515   -3.1166   -3.2344 O   0  0  0  0  0  0  0  0  0  0  0  0
    0.7487   -2.1984   -2.2853 C   0  0  0  0  0  0  0  0  0  0  0  0
    1.5637   -1.1215   -1.9468 C   0  0  0  0  0  0  0  0  0  0  0  0
    1.1596   -0.2375   -0.9636 C   0  0  0  0  0  0  0  0  0  0  0  0
   -0.0530   -0.3969   -0.2923 C   0  0  0  0  0  0  0  0  0  0  0  0
   -0.4850    0.5540    0.7646 C   0  0  0  0  0  0  0  0  0  0  0  0
   -0.0561    1.8779    0.7755 C   0  0  0  0  0  0  0  0  0  0  0  0
   -0.4668    2.7184    1.7864 C   0  0  0  0  0  0  0  0  0  0  0  0
   -1.3104    2.2448    2.7909 C   0  0  0  0  0  0  0  0  0  0  0  0
   -1.7732    3.0971    3.9207 C   0  0  0  0  0  0  0  0  0  0  0  0
   -1.6902    0.9058    2.6860 C   0  0  0  0  0  0  0  0  0  0  0  0
   -1.3050    0.0864    1.7120 N   0  0  0  0  0  0  0  0  0  0  0  0
   -0.8548   -1.4809   -0.6360 C   0  0  0  0  0  0  0  0  0  0  0  0
   -0.4693   -2.3668   -1.6178 C   0  0  0  0  0  0  0  0  0  0  0  0
    2.3571   -3.7912   -4.6228 H   0  0  0  0  0  0  0  0  0  0  0  0
    2.3328   -2.0268   -4.4585 H   0  0  0  0  0  0  0  0  0  0  0  0
    3.1243   -3.0235   -3.2203 H   0  0  0  0  0  0  0  0  0  0  0  0
    2.5132   -0.9579   -2.4352 H   0  0  0  0  0  0  0  0  0  0  0  0
    1.8020    0.5920   -0.7061 H   0  0  0  0  0  0  0  0  0  0  0  0
    0.5875    2.2489   -0.0120 H   0  0  0  0  0  0  0  0  0  0  0  0
   -0.1394    3.7446    1.8027 H   0  0  0  0  0  0  0  0  0  0  0  0
   -2.8339    2.9477    4.1234 H   0  0  0  0  0  0  0  0  0  0  0  0
   -1.2355    2.8580    4.8340 H   0  0  0  0  0  0  0  0  0  0  0  0
   -1.6171    4.1537    3.7128 H   0  0  0  0  0  0  0  0  0  0  0  0
   -2.3449    0.4810    3.4362 H   0  0  0  0  0  0  0  0  0  0  0  0
   -1.7953   -1.6235   -0.1163 H   0  0  0  0  0  0  0  0  0  0  0  0
   -1.1020   -3.2015   -1.8836 H   0  0  0  0  0  0  0  0  0  0  0  0
  1  2  1  0
  2  3  1  0
  3  4  1  0
  4  5  2  0
  5  6  1  0
  6  7  1  0
  7  8  2  0
  8  9  1  0
  9 10  2  0
 10 11  1  0
 10 12  1  0
 12 13  2  0
  6 14  2  0
 14 15  1  0
 15  3  2  0
 13  7  1  0
  1 16  1  0
  1 17  1  0
  1 18  1  0
  4 19  1  0
  5 20  1  0
  8 21  1  0
  9 22  1  0
 11 23  1  0
 11 24  1  0
 11 25  1  0
 12 26  1  0
 14 27  1  0
 15 28  1  0
M  END
$$$$

     RDKit          3D

 28 29  0  0  0  0  0  0  0  0999 V2000
    3.4086   -3.6440   -2.1524 C   0  0  0  0  0  0  0  0  0  0  0  0
    3.6381   -2.3928   -1.5216 O   0  0  0  0  0  0  0  0  0  0  0  0
    2.5613   -1.7053   -1.0753 C   0  0  0  0  0  0  0  0  0  0  0  0
    2.8179   -0.4674   -0.4815 C   0  0  0  0  0  0  0  0  0  0  0  0
    1.7893    0.3054   -0.0008 C   0  0  0  0  0  0  0  0  0  0  0  0
    0.4624   -0.1198   -0.0932 C   0  0  0  0  0  0  0  0  0  0  0  0
   -0.6726    0.7002    0.4145 C   0  0  0  0  0  0  0  0  0  0  0  0
   -0.5123    2.0273    0.7987 C   0  0  0  0  0  0  0  0  0  0  0  0
   -1.5899    2.7388    1.2696 C   0  0  0  0  0  0  0  0  0  0  0  0
   -2.8444    2.1324    1.3593 C   0  0  0  0  0  0  0  0  0  0  0  0
   -4.0340    2.8708    1.8646 C   0  0  0  0  0  0  0  0  0  0  0  0
   -2.9066    0.7978    0.9458 C   0  0  0  0  0  0  0  0  0  0  0  0
   -1.8708    0.1032    0.4844 N   0  0  0  0  0  0  0  0  0  0  0  0
    0.2180   -1.3626   -0.6791 C   0  0  0  0  0  0  0  0  0  0  0  0
    1.2423   -2.1499   -1.1666 C   0  0  0  0  0  0  0  0  0  0  0  0
    2.9389   -4.3491   -1.4725 H   0  0  0  0  0  0  0  0  0  0  0  0
    4.3883   -4.0251   -2.4337 H   0  0  0  0  0  0  0  0  0  0  0  0
    2.7938   -3.5293   -3.0404 H   0  0  0  0  0  0  0  0  0  0  0  0
    3.8400   -0.1208   -0.4052 H   0  0  0  0  0  0  0  0  0  0  0  0
    2.0220    1.2521    0.4629 H   0  0  0  0  0  0  0  0  0  0  0  0
    0.4524    2.5015    0.7215 H   0  0  0  0  0  0  0  0  0  0  0  0
   -1.4718    3.7664    1.5693 H   0  0  0  0  0  0  0  0  0  0  0  0
   -4.2159    3.7646    1.2724 H   0  0  0  0  0  0  0  0  0  0  0  0
   -3.8805    3.2027    2.8867 H   0  0  0  0  0  0  0  0  0  0  0  0
   -4.9338    2.2589    1.8401 H   0  0  0  0  0  0  0  0  0  0  0  0
   -3.8446    0.2645    0.9937 H   0  0  0  0  0  0  0  0  0  0  0  0
   -0.8041   -1.7116   -0.7473 H   0  0  0  0  0  0  0  0  0  0  0  0
    1.0082   -3.1087   -1.6138 H   0  0  0  0  0  0  0  0  0  0  0  0
  1  2  1  0
  2  3  1  0
  3  4  1  0
  4  5  2  0
  5  6  1  0
  6  7  1  0
  7  8  2  0
  8  9  1  0
  9 10  2  0
 10 11  1  0
 10 12  1  0
 12 13  2  0
  6 14  2  0
 14 15  1  0
 15  3  2  0
 13  7  1  0
  1 16  1  0
  1 17  1  0
  1 18  1  0
  4 19  1  0
  5 20  1  0
  8 21  1  0
  9 22  1  0
 11 23  1  0
 11 24  1  0
 11 25  1  0
 12 26  1  0
 14 27  1  0
 15 28  1  0
M  END
$$$$

     RDKit          3D

 28 29  0  0  0  0  0  0  0  0999 V2000
    3.6017    3.7800   -1.4577 C   0  0  0  0  0  0  0  0  0  0  0  0
    3.6802    2.3615   -1.4720 O   0  0  0  0  0  0  0  0  0  0  0  0
    2.5985    1.6738   -1.0332 C   0  0  0  0  0  0  0  0  0  0  0  0
    1.4254    2.2666   -0.5748 C   0  0  0  0  0  0  0  0  0  0  0  0
    0.3752    1.4730   -0.1509 C   0  0  0  0  0  0  0  0  0  0  0  0
    0.4551    0.0805   -0.1799 C   0  0  0  0  0  0  0  0  0  0  0  0
   -0.6773   -0.7746    0.2647 C   0  0  0  0  0  0  0  0  0  0  0  0
   -1.9899   -0.3067    0.2828 C   0  0  0  0  0  0  0  0  0  0  0  0
   -3.0006   -1.1271    0.7273 C   0  0  0  0  0  0  0  0  0  0  0  0
   -2.7109   -2.4248    1.1567 C   0  0  0  0  0  0  0  0  0  0  0  0
   -3.7697   -3.3361    1.6685 C   0  0  0  0  0  0  0  0  0  0  0  0
   -1.3713   -2.8043    1.0825 C   0  0  0  0  0  0  0  0  0  0  0  0
   -0.3863   -2.0208    0.6473 N   0  0  0  0  0  0  0  0  0  0  0  0
    1.6382   -0.4985   -0.6331 C   0  0  0  0  0  0  0  0  0  0  0  0
    2.6949    0.2789   -1.0538 C   0  0  0  0  0  0  0  0  0  0  0  0
    3.4723    4.1518   -0.4455 H   0  0  0  0  0  0  0  0  0  0  0  0
    4.5454    4.1451   -1.8593 H   0  0  0  0  0  0  0  0  0  0  0  0
    2.7900    4.1377   -2.0878 H   0  0  0  0  0  0  0  0  0  0  0  0
    1.3104    3.3393   -0.5403 H   0  0  0  0  0  0  0  0  0  0  0  0
   -0.5219    1.9485    0.2158 H   0  0  0  0  0  0  0  0  0  0  0  0
   -2.2172    0.6936   -0.0560 H   0  0  0  0  0  0  0  0  0  0  0  0
   -4.0206   -0.7743    0.7447 H   0  0  0  0  0  0  0  0  0  0  0  0
   -4.5227   -3.5285    0.9094 H   0  0  0  0  0  0  0  0  0  0  0  0
   -4.2874   -2.8906    2.5135 H   0  0  0  0  0  0  0  0  0  0  0  0
   -3.3644   -4.2938    1.9906 H   0  0  0  0  0  0  0  0  0  0  0  0
   -1.0794   -3.7954    1.3940 H   0  0  0  0  0  0  0  0  0  0  0  0
    1.7226   -1.5773   -0.6489 H   0  0  0  0  0  0  0  0  0  0  0  0
    3.6097   -0.1777   -1.4047 H   0  0  0  0  0  0  0  0  0  0  0  0
  1  2  1  0
  2  3  1  0
  3  4  1  0
  4  5  2  0
  5  6  1  0
  6  7  1  0
  7  8  2  0
  8  9  1  0
  9 10  2  0
 10 11  1  0
 10 12  1  0
 12 13  2  0
  6 14  2  0
 14 15  1  0
 15  3  2  0
 13  7  1  0
  1 16  1  0
  1 17  1  0
  1 18  1  0
  4 19  1  0
  5 20  1  0
  8 21  1  0
  9 22  1  0
 11 23  1  0
 11 24  1  0
 11 25  1  0
 12 26  1  0
 14 27  1  0
 15 28  1  0
M  END
$$$$

     RDKit          3D

 28 29  0  0  0  0  0  0  0  0999 V2000
   -0.6246    5.3772    0.4425 C   0  0  0  0  0  0  0  0  0  0  0  0
   -0.3274    4.5459   -0.6730 O   0  0  0  0  0  0  0  0  0  0  0  0
   -0.2302    3.2131   -0.4569 C   0  0  0  0  0  0  0  0  0  0  0  0
    0.0615    2.4230   -1.5715 C   0  0  0  0  0  0  0  0  0  0  0  0
    0.1805    1.0589   -1.4495 C   0  0  0  0  0  0  0  0  0  0  0  0
    0.0125    0.4303   -0.2161 C   0  0  0  0  0  0  0  0  0  0  0  0
    0.1280   -1.0427   -0.0673 C   0  0  0  0  0  0  0  0  0  0  0  0
   -0.1433   -1.9075   -1.1221 C   0  0  0  0  0  0  0  0  0  0  0  0
   -0.0221   -3.2656   -0.9370 C   0  0  0  0  0  0  0  0  0  0  0  0
    0.3798   -3.7710    0.3019 C   0  0  0  0  0  0  0  0  0  0  0  0
    0.5566   -5.2305    0.5450 C   0  0  0  0  0  0  0  0  0  0  0  0
    0.6246   -2.8198    1.2990 C   0  0  0  0  0  0  0  0  0  0  0  0
    0.4971   -1.5069    1.1332 N   0  0  0  0  0  0  0  0  0  0  0  0
   -0.2672    1.2271    0.8932 C   0  0  0  0  0  0  0  0  0  0  0  0
   -0.3956    2.5979    0.7845 C   0  0  0  0  0  0  0  0  0  0  0  0
   -0.6545    6.3964    0.0644 H   0  0  0  0  0  0  0  0  0  0  0  0
   -1.5918    5.1250    0.8722 H   0  0  0  0  0  0  0  0  0  0  0  0
    0.1427    5.2983    1.2081 H   0  0  0  0  0  0  0  0  0  0  0  0
    0.1943    2.8979   -2.5341 H   0  0  0  0  0  0  0  0  0  0  0  0
    0.4180    0.4711   -2.3225 H   0  0  0  0  0  0  0  0  0  0  0  0
   -0.4571   -1.5079   -2.0750 H   0  0  0  0  0  0  0  0  0  0  0  0
   -0.2395   -3.9457   -1.7438 H   0  0  0  0  0  0  0  0  0  0  0  0
    0.3980   -5.4833    1.5916 H   0  0  0  0  0  0  0  0  0  0  0  0
   -0.1329   -5.8138   -0.0584 H   0  0  0  0  0  0  0  0  0  0  0  0
    1.5622   -5.5527    0.2801 H   0  0  0  0  0  0  0  0  0  0  0  0
    0.9366   -3.1423    2.2858 H   0  0  0  0  0  0  0  0  0  0  0  0
   -0.3813    0.7472    1.8582 H   0  0  0  0  0  0  0  0  0  0  0  0
   -0.6253    3.1807    1.6674 H   0  0  0  0  0  0  0  0  0  0  0  0
  1  2  1  0
  2  3  1  0
  3  4  1  0
  4  5  2  0
  5  6  1  0
  6  7  1  0
  7  8  2  0
  8  9  1  0
  9 10  2  0
 10 11  1  0
 10 12  1  0
 12 13  2  0
  6 14  2  0
 14 15  1  0
 15  3  2  0
 13  7  1  0
  1 16  1  0
  1 17  1  0
  1 18  1  0
  4 19  1  0
  5 20  1  0
  8 21  1  0
  9 22  1  0
 11 23  1  0
 11 24  1  0
 11 25  1  0
 12 26  1  0
 14 27  1  0
 15 28  1  0
M  END
$$$$

     RDKit          3D

 28 29  0  0  0  0  0  0  0  0999 V2000
   -4.7916    2.4035   -0.8665 C   0  0  0  0  0  0  0  0  0  0  0  0
   -3.5637    2.9032   -0.3514 O   0  0  0  0  0  0  0  0  0  0  0  0
   -2.5252    2.0390   -0.2579 C   0  0  0  0  0  0  0  0  0  0  0  0
   -1.3314    2.5556    0.2506 C   0  0  0  0  0  0  0  0  0  0  0  0
   -0.2251    1.7522    0.3909 C   0  0  0  0  0  0  0  0  0  0  0  0
   -0.2623    0.4073    0.0221 C   0  0  0  0  0  0  0  0  0  0  0  0
    0.9236   -0.4772    0.1616 C   0  0  0  0  0  0  0  0  0  0  0  0
    2.2191    0.0286    0.2051 C   0  0  0  0  0  0  0  0  0  0  0  0
    3.2817   -0.8322    0.3490 C   0  0  0  0  0  0  0  0  0  0  0  0
    3.0614   -2.2079    0.4549 C   0  0  0  0  0  0  0  0  0  0  0  0
    4.1788   -3.1799    0.6167 C   0  0  0  0  0  0  0  0  0  0  0  0
    1.7245   -2.6193    0.3851 C   0  0  0  0  0  0  0  0  0  0  0  0
    0.6919   -1.7957    0.2397 N   0  0  0  0  0  0  0  0  0  0  0  0
   -1.4591   -0.1018   -0.4805 C   0  0  0  0  0  0  0  0  0  0  0  0
   -2.5788    0.6935   -0.6245 C   0  0  0  0  0  0  0  0  0  0  0  0
   -4.6708    2.0402   -1.8846 H   0  0  0  0  0  0  0  0  0  0  0  0
   -5.1828    1.6043   -0.2418 H   0  0  0  0  0  0  0  0  0  0  0  0
   -5.4891    3.2374   -0.8626 H   0  0  0  0  0  0  0  0  0  0  0  0
   -1.2880    3.5976    0.5383 H   0  0  0  0  0  0  0  0  0  0  0  0
    0.6779    2.1691    0.8073 H   0  0  0  0  0  0  0  0  0  0  0  0
    2.3880    1.0926    0.1179 H   0  0  0  0  0  0  0  0  0  0  0  0
    4.2892   -0.4486    0.3815 H   0  0  0  0  0  0  0  0  0  0  0  0
    4.9768   -2.7657    1.2345 H   0  0  0  0  0  0  0  0  0  0  0  0
    3.8413   -4.1056    1.0813 H   0  0  0  0  0  0  0  0  0  0  0  0
    4.6212   -3.4293   -0.3402 H   0  0  0  0  0  0  0  0  0  0  0  0
    1.4816   -3.6726    0.4521 H   0  0  0  0  0  0  0  0  0  0  0  0
   -1.5022   -1.1476   -0.7580 H   0  0  0  0  0  0  0  0  0  0  0  0
   -3.4872    0.2591   -1.0205 H   0  0  0  0  0  0  0  0  0  0  0  0
  1  2  1  0
  2  3  1  0
  3  4  1  0
  4  5  2  0
  5  6  1  0
  6  7  1  0
  7  8  2  0
  8  9  1  0
  9 10  2  0
 10 11  1  0
 10 12  1  0
 12 13  2  0
  6 14  2  0
 14 15  1  0
 15  3  2  0
 13  7  1  0
  1 16  1  0
  1 17  1  0
  1 18  1  0
  4 19  1  0
  5 20  1  0
  8 21  1  0
  9 22  1  0
 11 23  1  0
 11 24  1  0
 11 25  1  0
 12 26  1  0
 14 27  1  0
 15 28  1  0
M  END
$$$$

     RDKit          3D

 28 29  0  0  0  0  0  0  0  0999 V2000
   -3.3507   -2.9752   -3.0548 C   0  0  0  0  0  0  0  0  0  0  0  0
   -3.5126   -2.4166   -1.7575 O   0  0  0  0  0  0  0  0  0  0  0  0
   -2.4677   -1.7286   -1.2414 C   0  0  0  0  0  0  0  0  0  0  0  0
   -2.6427   -1.1924    0.0405 C   0  0  0  0  0  0  0  0  0  0  0  0
   -1.6334   -0.4666    0.6371 C   0  0  0  0  0  0  0  0  0  0  0  0
   -0.4246   -0.2430   -0.0200 C   0  0  0  0  0  0  0  0  0  0  0  0
    0.6407    0.5643    0.6269 C   0  0  0  0  0  0  0  0  0  0  0  0
    1.5813    1.2716   -0.1174 C   0  0  0  0  0  0  0  0  0  0  0  0
    2.5474    2.0088    0.5297 C   0  0  0  0  0  0  0  0  0  0  0  0
    2.5813    2.0472    1.9252 C   0  0  0  0  0  0  0  0  0  0  0  0
    3.6176    2.8047    2.6805 C   0  0  0  0  0  0  0  0  0  0  0  0
    1.5911    1.3104    2.5774 C   0  0  0  0  0  0  0  0  0  0  0  0
    0.6523    0.5966    1.9621 N   0  0  0  0  0  0  0  0  0  0  0  0
   -0.2563   -0.7973   -1.2904 C   0  0  0  0  0  0  0  0  0  0  0  0
   -1.2561   -1.5251   -1.8985 C   0  0  0  0  0  0  0  0  0  0  0  0
   -2.5317   -3.6896   -3.0700 H   0  0  0  0  0  0  0  0  0  0  0  0
   -4.2812   -3.4862   -3.2900 H   0  0  0  0  0  0  0  0  0  0  0  0
   -3.1720   -2.2031   -3.8006 H   0  0  0  0  0  0  0  0  0  0  0  0
   -3.5806   -1.3571    0.5548 H   0  0  0  0  0  0  0  0  0  0  0  0
   -1.7742   -0.0613    1.6304 H   0  0  0  0  0  0  0  0  0  0  0  0
    1.5438    1.2521   -1.1985 H   0  0  0  0  0  0  0  0  0  0  0  0
    3.2780    2.5649   -0.0381 H   0  0  0  0  0  0  0  0  0  0  0  0
    4.4671    2.1699    2.9154 H   0  0  0  0  0  0  0  0  0  0  0  0
    3.9911    3.6488    2.1053 H   0  0  0  0  0  0  0  0  0  0  0  0
    3.2266    3.1868    3.6230 H   0  0  0  0  0  0  0  0  0  0  0  0
    1.5566    1.3038    3.6582 H   0  0  0  0  0  0  0  0  0  0  0  0
    0.6858   -0.6539   -1.8054 H   0  0  0  0  0  0  0  0  0  0  0  0
   -1.0771   -1.9338   -2.8838 H   0  0  0  0  0  0  0  0  0  0  0  0
  1  2  1  0
  2  3  1  0
  3  4  1  0
  4  5  2  0
  5  6  1  0
  6  7  1  0
  7  8  2  0
  8  9  1  0
  9 10  2  0
 10 11  1  0
 10 12  1  0
 12 13  2  0
  6 14  2  0
 14 15  1  0
 15  3  2  0
 13  7  1  0
  1 16  1  0
  1 17  1  0
  1 18  1  0
  4 19  1  0
  5 20  1  0
  8 21  1  0
  9 22  1  0
 11 23  1  0
 11 24  1  0
 11 25  1  0
 12 26  1  0
 14 27  1  0
 15 28  1  0
M  END
$$$$

     RDKit          3D

 28 29  0  0  0  0  0  0  0  0999 V2000
    3.3631    4.0264   -1.3997 C   0  0  0  0  0  0  0  0  0  0  0  0
    2.7174    3.0260   -2.1784 O   0  0  0  0  0  0  0  0  0  0  0  0
    1.9166    2.1489   -1.5275 C   0  0  0  0  0  0  0  0  0  0  0  0
    1.3028    1.1686   -2.3114 C   0  0  0  0  0  0  0  0  0  0  0  0
    0.4743    0.2330   -1.7412 C   0  0  0  0  0  0  0  0  0  0  0  0
    0.2235    0.2334   -0.3668 C   0  0  0  0  0  0  0  0  0  0  0  0
   -0.6623   -0.7739    0.2784 C   0  0  0  0  0  0  0  0  0  0  0  0
   -1.0505   -1.9377   -0.3750 C   0  0  0  0  0  0  0  0  0  0  0  0
   -1.8633   -2.8427    0.2672 C   0  0  0  0  0  0  0  0  0  0  0  0
   -2.3064   -2.5889    1.5651 C   0  0  0  0  0  0  0  0  0  0  0  0
   -3.1996   -3.5251    2.3008 C   0  0  0  0  0  0  0  0  0  0  0  0
   -1.8657   -1.3897    2.1369 C   0  0  0  0  0  0  0  0  0  0  0  0
   -1.0690   -0.5159    1.5312 N   0  0  0  0  0  0  0  0  0  0  0  0
    0.8341    1.2222    0.4065 C   0  0  0  0  0  0  0  0  0  0  0  0
    1.6702    2.1670   -0.1544 C   0  0  0  0  0  0  0  0  0  0  0  0
    3.9511    4.6230   -2.0925 H   0  0  0  0  0  0  0  0  0  0  0  0
    4.0201    3.5814   -0.6591 H   0  0  0  0  0  0  0  0  0  0  0  0
    2.6385    4.6690   -0.9062 H   0  0  0  0  0  0  0  0  0  0  0  0
    1.4869    1.1530   -3.3772 H   0  0  0  0  0  0  0  0  0  0  0  0
    0.0114   -0.5067   -2.3775 H   0  0  0  0  0  0  0  0  0  0  0  0
   -0.7134   -2.1308   -1.3810 H   0  0  0  0  0  0  0  0  0  0  0  0
   -2.1563   -3.7498   -0.2304 H   0  0  0  0  0  0  0  0  0  0  0  0
   -2.8395   -3.7047    3.3125 H   0  0  0  0  0  0  0  0  0  0  0  0
   -3.2691   -4.4887    1.7971 H   0  0  0  0  0  0  0  0  0  0  0  0
   -4.2046   -3.1251    2.3850 H   0  0  0  0  0  0  0  0  0  0  0  0
   -2.1780   -1.1270    3.1408 H   0  0  0  0  0  0  0  0  0  0  0  0
    0.6394    1.2448    1.4708 H   0  0  0  0  0  0  0  0  0  0  0  0
    2.1283    2.9100    0.4861 H   0  0  0  0  0  0  0  0  0  0  0  0
  1  2  1  0
  2  3  1  0
  3  4  1  0
  4  5  2  0
  5  6  1  0
  6  7  1  0
  7  8  2  0
  8  9  1  0
  9 10  2  0
 10 11  1  0
 10 12  1  0
 12 13  2  0
  6 14  2  0
 14 15  1  0
 15  3  2  0
 13  7  1  0
  1 16  1  0
  1 17  1  0
  1 18  1  0
  4 19  1  0
  5 20  1  0
  8 21  1  0
  9 22  1  0
 11 23  1  0
 11 24  1  0
 11 25  1  0
 12 26  1  0
 14 27  1  0
 15 28  1  0
M  END
$$$$

     RDKit          3D

 28 29  0  0  0  0  0  0  0  0999 V2000
   -4.0768    1.1745    3.3879 C   0  0  0  0  0  0  0  0  0  0  0  0
   -4.0603    0.5146    2.1263 O   0  0  0  0  0  0  0  0  0  0  0  0
   -2.8606    0.3713    1.5139 C   0  0  0  0  0  0  0  0  0  0  0  0
   -2.8657   -0.2751    0.2737 C   0  0  0  0  0  0  0  0  0  0  0  0
   -1.6943   -0.4695   -0.4186 C   0  0  0  0  0  0  0  0  0  0  0  0
   -0.4741   -0.0295    0.0952 C   0  0  0  0  0  0  0  0  0  0  0  0
    0.8034   -0.2299   -0.6392 C   0  0  0  0  0  0  0  0  0  0  0  0
    0.8326   -0.4191   -2.0170 C   0  0  0  0  0  0  0  0  0  0  0  0
    2.0372   -0.6052   -2.6532 C   0  0  0  0  0  0  0  0  0  0  0  0
    3.2263   -0.6049   -1.9197 C   0  0  0  0  0  0  0  0  0  0  0  0
    4.5508   -0.8030   -2.5695 C   0  0  0  0  0  0  0  0  0  0  0  0
    3.0931   -0.3999   -0.5430 C   0  0  0  0  0  0  0  0  0  0  0  0
    1.9318   -0.2133    0.0804 N   0  0  0  0  0  0  0  0  0  0  0  0
   -0.4766    0.6098    1.3349 C   0  0  0  0  0  0  0  0  0  0  0  0
   -1.6473    0.8161    2.0390 C   0  0  0  0  0  0  0  0  0  0  0  0
   -3.4684    0.6471    4.1201 H   0  0  0  0  0  0  0  0  0  0  0  0
   -5.1118    1.1705    3.7241 H   0  0  0  0  0  0  0  0  0  0  0  0
   -3.7269    2.1979    3.2985 H   0  0  0  0  0  0  0  0  0  0  0  0
   -3.8035   -0.6271   -0.1358 H   0  0  0  0  0  0  0  0  0  0  0  0
   -1.7240   -0.9827   -1.3691 H   0  0  0  0  0  0  0  0  0  0  0  0
   -0.0867   -0.4113   -2.5845 H   0  0  0  0  0  0  0  0  0  0  0  0
    2.0731   -0.7424   -3.7219 H   0  0  0  0  0  0  0  0  0  0  0  0
    4.7436   -0.0266   -3.3031 H   0  0  0  0  0  0  0  0  0  0  0  0
    5.3623   -0.7937   -1.8432 H   0  0  0  0  0  0  0  0  0  0  0  0
    4.5890   -1.7496   -3.1039 H   0  0  0  0  0  0  0  0  0  0  0  0
    3.9725   -0.3874    0.0859 H   0  0  0  0  0  0  0  0  0  0  0  0
    0.4683    0.9462    1.7467 H   0  0  0  0  0  0  0  0  0  0  0  0
   -1.6071    1.3224    2.9950 H   0  0  0  0  0  0  0  0  0  0  0  0
  1  2  1  0
  2  3  1  0
  3  4  1  0
  4  5  2  0
  5  6  1  0
  6  7  1  0
  7  8  2  0
  8  9  1  0
  9 10  2  0
 10 11  1  0
 10 12  1  0
 12 13  2  0
  6 14  2  0
 14 15  1  0
 15  3  2  0
 13  7  1  0
  1 16  1  0
  1 17  1  0
  1 18  1  0
  4 19  1  0
  5 20  1  0
  8 21  1  0
  9 22  1  0
 11 23  1  0
 11 24  1  0
 11 25  1  0
 12 26  1  0
 14 27  1  0
 15 28  1  0
M  END
$$$$
