
     RDKit          3D

 22 24  0  0  0  0  0  0  0  0999 V2000
   -2.6912    0.3839   -1.4364 O   0  0  0  0  0  0  0  0  0  0  0  0
   -1.6048    0.2234   -0.8530 C   0  0  0  0  0  0  0  0  0  0  0  0
   -1.3836   -0.2098    0.5532 C   0  0  0  0  0  0  0  0  0  0  0  0
   -2.2976   -0.5300    1.5408 C   0  0  0  0  0  0  0  0  0  0  0  0
   -1.8267   -0.8930    2.7880 C   0  0  0  0  0  0  0  0  0  0  0  0
   -0.4448   -0.9412    3.0534 C   0  0  0  0  0  0  0  0  0  0  0  0
    0.4861   -0.6267    2.0772 C   0  0  0  0  0  0  0  0  0  0  0  0
    0.0234   -0.2589    0.8124 C   0  0  0  0  0  0  0  0  0  0  0  0
    0.7332    0.1285   -0.4139 C   0  0  0  0  0  0  0  0  0  0  0  0
    2.0925    0.2402   -0.7169 C   0  0  0  0  0  0  0  0  0  0  0  0
    2.4537    0.6594   -1.9869 C   0  0  0  0  0  0  0  0  0  0  0  0
    1.4845    0.9571   -2.9625 C   0  0  0  0  0  0  0  0  0  0  0  0
    0.1376    0.8419   -2.6801 C   0  0  0  0  0  0  0  0  0  0  0  0
   -0.2427    0.4289   -1.4171 C   0  0  0  0  0  0  0  0  0  0  0  0
   -3.3578   -0.4974    1.3293 H   0  0  0  0  0  0  0  0  0  0  0  0
   -2.5237   -1.1459    3.5764 H   0  0  0  0  0  0  0  0  0  0  0  0
   -0.1088   -1.2259    4.0321 H   0  0  0  0  0  0  0  0  0  0  0  0
    1.5445   -0.6651    2.2778 H   0  0  0  0  0  0  0  0  0  0  0  0
    2.8379    0.0080    0.0265 H   0  0  0  0  0  0  0  0  0  0  0  0
    3.4950    0.7631   -2.2346 H   0  0  0  0  0  0  0  0  0  0  0  0
    1.8070    1.2838   -3.9437 H   0  0  0  0  0  0  0  0  0  0  0  0
   -0.6136    1.0757   -3.4221 H   0  0  0  0  0  0  0  0  0  0  0  0
  1  2  2  0
  2  3  1  0
  3  4  2  0
  4  5  1  0
  5  6  2  0
  6  7  1  0
  7  8  2  0
  8  9  1  0
  9 10  2  0
 10 11  1  0
 11 12  2  0
 12 13  1  0
 13 14  2  0
 14  2  1  0
  8  3  1  0
 14  9  1  0
  4 15  1  0
  5 16  1  0
  6 17  1  0
  7 18  1  0
 10 19  1  0
 11 20  1  0
 12 21  1  0
 13 22  1  0
M  END
$$$$

     RDKit          3D

 22 24  0  0  0  0  0  0  0  0999 V2000
   -1.1780   -2.8425    0.0252 O   0  0  0  0  0  0  0  0  0  0  0  0
   -0.7012   -1.6951    0.0181 C   0  0  0  0  0  0  0  0  0  0  0  0
   -1.2571   -0.4947   -0.6647 C   0  0  0  0  0  0  0  0  0  0  0  0
   -2.4015   -0.3557   -1.4288 C   0  0  0  0  0  0  0  0  0  0  0  0
   -2.6962    0.8846   -1.9623 C   0  0  0  0  0  0  0  0  0  0  0  0
   -1.8542    1.9900   -1.7304 C   0  0  0  0  0  0  0  0  0  0  0  0
   -0.7023    1.8686   -0.9715 C   0  0  0  0  0  0  0  0  0  0  0  0
   -0.3946    0.6212   -0.4248 C   0  0  0  0  0  0  0  0  0  0  0  0
    0.7204    0.1702    0.4171 C   0  0  0  0  0  0  0  0  0  0  0  0
    1.8233    0.8459    0.9405 C   0  0  0  0  0  0  0  0  0  0  0  0
    2.7313    0.1325    1.7065 C   0  0  0  0  0  0  0  0  0  0  0  0
    2.5524   -1.2397    1.9634 C   0  0  0  0  0  0  0  0  0  0  0  0
    1.4589   -1.9191    1.4616 C   0  0  0  0  0  0  0  0  0  0  0  0
    0.5447   -1.2253    0.6868 C   0  0  0  0  0  0  0  0  0  0  0  0
   -3.0462   -1.2079   -1.5982 H   0  0  0  0  0  0  0  0  0  0  0  0
   -3.5856    1.0155   -2.5656 H   0  0  0  0  0  0  0  0  0  0  0  0
   -2.1090    2.9433   -2.1535 H   0  0  0  0  0  0  0  0  0  0  0  0
   -0.0550    2.7122   -0.7975 H   0  0  0  0  0  0  0  0  0  0  0  0
    1.9575    1.8975    0.7427 H   0  0  0  0  0  0  0  0  0  0  0  0
    3.5903    0.6335    2.1118 H   0  0  0  0  0  0  0  0  0  0  0  0
    3.2885   -1.7635    2.5609 H   0  0  0  0  0  0  0  0  0  0  0  0
    1.3138   -2.9715    1.6628 H   0  0  0  0  0  0  0  0  0  0  0  0
  1  2  2  0
  2  3  1  0
  3  4  2  0
  4  5  1  0
  5  6  2  0
  6  7  1  0
  7  8  2  0
  8  9  1  0
  9 10  2  0
 10 11  1  0
 11 12  2  0
 12 13  1  0
 13 14  2  0
 14  2  1  0
  8  3  1  0
 14  9  1  0
  4 15  1  0
  5 16  1  0
  6 17  1  0
  7 18  1  0
 10 19  1  0
 11 20  1  0
 12 21  1  0
 13 22  1  0
M  END
$$$$

     RDKit          3D

 22 24  0  0  0  0  0  0  0  0999 V2000
   -1.8801    1.9216   -1.4899 O   0  0  0  0  0  0  0  0  0  0  0  0
   -1.1199    1.1390   -0.8919 C   0  0  0  0  0  0  0  0  0  0  0  0
   -1.4871    0.1391    0.1474 C   0  0  0  0  0  0  0  0  0  0  0  0
   -2.7247   -0.1646    0.6865 C   0  0  0  0  0  0  0  0  0  0  0  0
   -2.8007   -1.1387    1.6634 C   0  0  0  0  0  0  0  0  0  0  0  0
   -1.6461   -1.8165    2.0981 C   0  0  0  0  0  0  0  0  0  0  0  0
   -0.4003   -1.5310    1.5641 C   0  0  0  0  0  0  0  0  0  0  0  0
   -0.3066   -0.5432    0.5814 C   0  0  0  0  0  0  0  0  0  0  0  0
    0.8366   -0.0049   -0.1673 C   0  0  0  0  0  0  0  0  0  0  0  0
    2.2003   -0.3060   -0.1362 C   0  0  0  0  0  0  0  0  0  0  0  0
    3.0481    0.3930   -0.9782 C   0  0  0  0  0  0  0  0  0  0  0  0
    2.5607    1.3861   -1.8491 C   0  0  0  0  0  0  0  0  0  0  0  0
    1.2156    1.6975   -1.8882 C   0  0  0  0  0  0  0  0  0  0  0  0
    0.3534    1.0097   -1.0543 C   0  0  0  0  0  0  0  0  0  0  0  0
   -3.6071    0.3567    0.3451 H   0  0  0  0  0  0  0  0  0  0  0  0
   -3.7574   -1.3920    2.1029 H   0  0  0  0  0  0  0  0  0  0  0  0
   -1.7364   -2.5699    2.8584 H   0  0  0  0  0  0  0  0  0  0  0  0
    0.4814   -2.0558    1.8925 H   0  0  0  0  0  0  0  0  0  0  0  0
    2.5775   -1.0637    0.5311 H   0  0  0  0  0  0  0  0  0  0  0  0
    4.1002    0.1730   -0.9713 H   0  0  0  0  0  0  0  0  0  0  0  0
    3.2567    1.9085   -2.4928 H   0  0  0  0  0  0  0  0  0  0  0  0
    0.8359    2.4622   -2.5517 H   0  0  0  0  0  0  0  0  0  0  0  0
  1  2  2  0
  2  3  1  0
  3  4  2  0
  4  5  1  0
  5  6  2  0
  6  7  1  0
  7  8  2  0
  8  9  1  0
  9 10  2  0
 10 11  1  0
 11 12  2  0
 12 13  1  0
 13 14  2  0
 14  2  1  0
  8  3  1  0
 14  9  1  0
  4 15  1  0
  5 16  1  0
  6 17  1  0
  7 18  1  0
 10 19  1  0
 11 20  1  0
 12 21  1  0
 13 22  1  0
M  END
$$$$

     RDKit          3D

 22 24  0  0  0  0  0  0  0  0999 V2000
   -2.6932   -0.9837    1.0944 O   0  0  0  0  0  0  0  0  0  0  0  0
   -1.6018   -0.5865    0.6509 C   0  0  0  0  0  0  0  0  0  0  0  0
   -1.1577    0.8230    0.4802 C   0  0  0  0  0  0  0  0  0  0  0  0
   -1.8263    2.0014    0.7587 C   0  0  0  0  0  0  0  0  0  0  0  0
   -1.1882    3.2001    0.5088 C   0  0  0  0  0  0  0  0  0  0  0  0
    0.1160    3.2260   -0.0201 C   0  0  0  0  0  0  0  0  0  0  0  0
    0.8015    2.0564   -0.3065 C   0  0  0  0  0  0  0  0  0  0  0  0
    0.1680    0.8359   -0.0593 C   0  0  0  0  0  0  0  0  0  0  0  0
    0.6019   -0.5563   -0.2457 C   0  0  0  0  0  0  0  0  0  0  0  0
    1.7875   -1.1126   -0.7308 C   0  0  0  0  0  0  0  0  0  0  0  0
    1.8918   -2.4922   -0.7936 C   0  0  0  0  0  0  0  0  0  0  0  0
    0.8384   -3.3264   -0.3739 C   0  0  0  0  0  0  0  0  0  0  0  0
   -0.3385   -2.7911    0.1099 C   0  0  0  0  0  0  0  0  0  0  0  0
   -0.4619   -1.4162    0.1766 C   0  0  0  0  0  0  0  0  0  0  0  0
   -2.8294    1.9724    1.1610 H   0  0  0  0  0  0  0  0  0  0  0  0
   -1.6905    4.1355    0.7200 H   0  0  0  0  0  0  0  0  0  0  0  0
    0.5836    4.1744   -0.2071 H   0  0  0  0  0  0  0  0  0  0  0  0
    1.7998    2.0793   -0.7107 H   0  0  0  0  0  0  0  0  0  0  0  0
    2.5980   -0.4758   -1.0463 H   0  0  0  0  0  0  0  0  0  0  0  0
    2.7948   -2.9388   -1.1674 H   0  0  0  0  0  0  0  0  0  0  0  0
    0.9592   -4.4008   -0.4345 H   0  0  0  0  0  0  0  0  0  0  0  0
   -1.1529   -3.4239    0.4353 H   0  0  0  0  0  0  0  0  0  0  0  0
  1  2  2  0
  2  3  1  0
  3  4  2  0
  4  5  1  0
  5  6  2  0
  6  7  1  0
  7  8  2  0
  8  9  1  0
  9 10  2  0
 10 11  1  0
 11 12  2  0
 12 13  1  0
 13 14  2  0
 14  2  1  0
  8  3  1  0
 14  9  1  0
  4 15  1  0
  5 16  1  0
  6 17  1  0
  7 18  1  0
 10 19  1  0
 11 20  1  0
 12 21  1  0
 13 22  1  0
M  END
$$$$

     RDKit          3D

 22 24  0  0  0  0  0  0  0  0999 V2000
   -2.8028   -0.9116    0.8889 O   0  0  0  0  0  0  0  0  0  0  0  0
   -1.6694   -0.5440    0.5289 C   0  0  0  0  0  0  0  0  0  0  0  0
   -0.9416    0.6844    0.9522 C   0  0  0  0  0  0  0  0  0  0  0  0
   -1.3283    1.6949    1.8155 C   0  0  0  0  0  0  0  0  0  0  0  0
   -0.4549    2.7416    2.0429 C   0  0  0  0  0  0  0  0  0  0  0  0
    0.8063    2.7796    1.4164 C   0  0  0  0  0  0  0  0  0  0  0  0
    1.2080    1.7810    0.5444 C   0  0  0  0  0  0  0  0  0  0  0  0
    0.3346    0.7194    0.3039 C   0  0  0  0  0  0  0  0  0  0  0  0
    0.4529   -0.4728   -0.5423 C   0  0  0  0  0  0  0  0  0  0  0  0
    1.4733   -0.9194   -1.3832 C   0  0  0  0  0  0  0  0  0  0  0  0
    1.2856   -2.1031   -2.0765 C   0  0  0  0  0  0  0  0  0  0  0  0
    0.0995   -2.8499   -1.9404 C   0  0  0  0  0  0  0  0  0  0  0  0
   -0.9192   -2.4192   -1.1120 C   0  0  0  0  0  0  0  0  0  0  0  0
   -0.7494   -1.2367   -0.4141 C   0  0  0  0  0  0  0  0  0  0  0  0
   -2.2958    1.6594    2.2963 H   0  0  0  0  0  0  0  0  0  0  0  0
   -0.7354    3.5460    2.7138 H   0  0  0  0  0  0  0  0  0  0  0  0
    1.4670    3.6026    1.6180 H   0  0  0  0  0  0  0  0  0  0  0  0
    2.1729    1.8133    0.0640 H   0  0  0  0  0  0  0  0  0  0  0  0
    2.3809   -0.3464   -1.4833 H   0  0  0  0  0  0  0  0  0  0  0  0
    2.0569   -2.4603   -2.7319 H   0  0  0  0  0  0  0  0  0  0  0  0
   -0.0111   -3.7695   -2.5015 H   0  0  0  0  0  0  0  0  0  0  0  0
   -1.8301   -2.9894   -1.0000 H   0  0  0  0  0  0  0  0  0  0  0  0
  1  2  2  0
  2  3  1  0
  3  4  2  0
  4  5  1  0
  5  6  2  0
  6  7  1  0
  7  8  2  0
  8  9  1  0
  9 10  2  0
 10 11  1  0
 11 12  2  0
 12 13  1  0
 13 14  2  0
 14  2  1  0
  8  3  1  0
 14  9  1  0
  4 15  1  0
  5 16  1  0
  6 17  1  0
  7 18  1  0
 10 19  1  0
 11 20  1  0
 12 21  1  0
 13 22  1  0
M  END
$$$$

     RDKit          3D

 22 24  0  0  0  0  0  0  0  0999 V2000
   -2.6945   -0.7981   -1.2415 O   0  0  0  0  0  0  0  0  0  0  0  0
   -1.6045   -0.4735   -0.7382 C   0  0  0  0  0  0  0  0  0  0  0  0
   -0.8156   -1.2280    0.2729 C   0  0  0  0  0  0  0  0  0  0  0  0
   -1.0888   -2.4392    0.8806 C   0  0  0  0  0  0  0  0  0  0  0  0
   -0.1883   -2.9344    1.8035 C   0  0  0  0  0  0  0  0  0  0  0  0
    0.9845   -2.2225    2.1205 C   0  0  0  0  0  0  0  0  0  0  0  0
    1.2746   -1.0070    1.5233 C   0  0  0  0  0  0  0  0  0  0  0  0
    0.3750   -0.4973    0.5837 C   0  0  0  0  0  0  0  0  0  0  0  0
    0.3833    0.7284   -0.2247 C   0  0  0  0  0  0  0  0  0  0  0  0
    1.3044    1.7728   -0.3268 C   0  0  0  0  0  0  0  0  0  0  0  0
    1.0251    2.8141   -1.1959 C   0  0  0  0  0  0  0  0  0  0  0  0
   -0.1553    2.8304   -1.9644 C   0  0  0  0  0  0  0  0  0  0  0  0
   -1.0744    1.8028   -1.8763 C   0  0  0  0  0  0  0  0  0  0  0  0
   -0.8101    0.7524   -1.0159 C   0  0  0  0  0  0  0  0  0  0  0  0
   -1.9877   -2.9822    0.6232 H   0  0  0  0  0  0  0  0  0  0  0  0
   -0.3781   -3.8824    2.2905 H   0  0  0  0  0  0  0  0  0  0  0  0
    1.6682   -2.6339    2.8407 H   0  0  0  0  0  0  0  0  0  0  0  0
    2.1756   -0.4666    1.7680 H   0  0  0  0  0  0  0  0  0  0  0  0
    2.2053    1.7658    0.2639 H   0  0  0  0  0  0  0  0  0  0  0  0
    1.7230    3.6254   -1.2932 H   0  0  0  0  0  0  0  0  0  0  0  0
   -0.3370    3.6622   -2.6327 H   0  0  0  0  0  0  0  0  0  0  0  0
   -1.9844    1.8108   -2.4612 H   0  0  0  0  0  0  0  0  0  0  0  0
  1  2  2  0
  2  3  1  0
  3  4  2  0
  4  5  1  0
  5  6  2  0
  6  7  1  0
  7  8  2  0
  8  9  1  0
  9 10  2  0
 10 11  1  0
 11 12  2  0
 12 13  1  0
 13 14  2  0
 14  2  1  0
  8  3  1  0
 14  9  1  0
  4 15  1  0
  5 16  1  0
  6 17  1  0
  7 18  1  0
 10 19  1  0
 11 20  1  0
 12 21  1  0
 13 22  1  0
M  END
$$$$

     RDKit          3D

 22 24  0  0  0  0  0  0  0  0999 V2000
   -1.2015    1.0754    2.6156 O   0  0  0  0  0  0  0  0  0  0  0  0
   -0.7109    0.6405    1.5581 C   0  0  0  0  0  0  0  0  0  0  0  0
   -0.7172    1.2986    0.2246 C   0  0  0  0  0  0  0  0  0  0  0  0
   -1.2547    2.5133   -0.1571 C   0  0  0  0  0  0  0  0  0  0  0  0
   -1.1291    2.9045   -1.4764 C   0  0  0  0  0  0  0  0  0  0  0  0
   -0.4648    2.0877   -2.4134 C   0  0  0  0  0  0  0  0  0  0  0  0
    0.0808    0.8679   -2.0473 C   0  0  0  0  0  0  0  0  0  0  0  0
   -0.0468    0.4574   -0.7187 C   0  0  0  0  0  0  0  0  0  0  0  0
    0.3985   -0.7533   -0.0194 C   0  0  0  0  0  0  0  0  0  0  0  0
    1.0847   -1.8867   -0.4567 C   0  0  0  0  0  0  0  0  0  0  0  0
    1.3570   -2.8890    0.4612 C   0  0  0  0  0  0  0  0  0  0  0  0
    0.9675   -2.7733    1.8101 C   0  0  0  0  0  0  0  0  0  0  0  0
    0.2854   -1.6580    2.2561 C   0  0  0  0  0  0  0  0  0  0  0  0
    0.0001   -0.6504    1.3519 C   0  0  0  0  0  0  0  0  0  0  0  0
   -1.7618    3.1347    0.5688 H   0  0  0  0  0  0  0  0  0  0  0  0
   -1.5427    3.8503   -1.8019 H   0  0  0  0  0  0  0  0  0  0  0  0
   -0.3841    2.4194   -3.4318 H   0  0  0  0  0  0  0  0  0  0  0  0
    0.5922    0.2457   -2.7638 H   0  0  0  0  0  0  0  0  0  0  0  0
    1.3920   -1.9736   -1.4865 H   0  0  0  0  0  0  0  0  0  0  0  0
    1.8749   -3.7730    0.1400 H   0  0  0  0  0  0  0  0  0  0  0  0
    1.2053   -3.5744    2.4988 H   0  0  0  0  0  0  0  0  0  0  0  0
   -0.0249   -1.5637    3.2878 H   0  0  0  0  0  0  0  0  0  0  0  0
  1  2  2  0
  2  3  1  0
  3  4  2  0
  4  5  1  0
  5  6  2  0
  6  7  1  0
  7  8  2  0
  8  9  1  0
  9 10  2  0
 10 11  1  0
 11 12  2  0
 12 13  1  0
 13 14  2  0
 14  2  1  0
  8  3  1  0
 14  9  1  0
  4 15  1  0
  5 16  1  0
  6 17  1  0
  7 18  1  0
 10 19  1  0
 11 20  1  0
 12 21  1  0
 13 22  1  0
M  END
$$$$

     RDKit          3D

 22 24  0  0  0  0  0  0  0  0999 V2000
   -1.3285   -2.6623   -0.7679 O   0  0  0  0  0  0  0  0  0  0  0  0
   -0.7935   -1.5829   -0.4620 C   0  0  0  0  0  0  0  0  0  0  0  0
    0.5625   -1.1047   -0.8486 C   0  0  0  0  0  0  0  0  0  0  0  0
    1.5236   -1.7072   -1.6412 C   0  0  0  0  0  0  0  0  0  0  0  0
    2.7219   -1.0490   -1.8444 C   0  0  0  0  0  0  0  0  0  0  0  0
    2.9630    0.2092   -1.2581 C   0  0  0  0  0  0  0  0  0  0  0  0
    2.0093    0.8296   -0.4678 C   0  0  0  0  0  0  0  0  0  0  0  0
    0.7924    0.1777   -0.2580 C   0  0  0  0  0  0  0  0  0  0  0  0
   -0.4079    0.5597    0.4972 C   0  0  0  0  0  0  0  0  0  0  0  0
   -0.7203    1.6966    1.2438 C   0  0  0  0  0  0  0  0  0  0  0  0
   -1.9611    1.7640    1.8540 C   0  0  0  0  0  0  0  0  0  0  0  0
   -2.9001    0.7229    1.7224 C   0  0  0  0  0  0  0  0  0  0  0  0
   -2.6060   -0.4078    0.9853 C   0  0  0  0  0  0  0  0  0  0  0  0
   -1.3670   -0.4956    0.3765 C   0  0  0  0  0  0  0  0  0  0  0  0
    1.3295   -2.6730   -2.0875 H   0  0  0  0  0  0  0  0  0  0  0  0
    3.4881   -1.4980   -2.4627 H   0  0  0  0  0  0  0  0  0  0  0  0
    3.9057    0.6957   -1.4250 H   0  0  0  0  0  0  0  0  0  0  0  0
    2.1911    1.7960   -0.0269 H   0  0  0  0  0  0  0  0  0  0  0  0
   -0.0056    2.4984    1.3396 H   0  0  0  0  0  0  0  0  0  0  0  0
   -2.2172    2.6293    2.4364 H   0  0  0  0  0  0  0  0  0  0  0  0
   -3.8609    0.8153    2.2123 H   0  0  0  0  0  0  0  0  0  0  0  0
   -3.3189   -1.2140    0.8825 H   0  0  0  0  0  0  0  0  0  0  0  0
  1  2  2  0
  2  3  1  0
  3  4  2  0
  4  5  1  0
  5  6  2  0
  6  7  1  0
  7  8  2  0
  8  9  1  0
  9 10  2  0
 10 11  1  0
 11 12  2  0
 12 13  1  0
 13 14  2  0
 14  2  1  0
  8  3  1  0
 14  9  1  0
  4 15  1  0
  5 16  1  0
  6 17  1  0
  7 18  1  0
 10 19  1  0
 11 20  1  0
 12 21  1  0
 13 22  1  0
M  END
$$$$

     RDKit          3D

 22 24  0  0  0  0  0  0  0  0999 V2000
   -2.6489    1.0227    1.1856 O   0  0  0  0  0  0  0  0  0  0  0  0
   -1.5763    0.6143    0.7063 C   0  0  0  0  0  0  0  0  0  0  0  0
   -0.9825    0.9583   -0.6156 C   0  0  0  0  0  0  0  0  0  0  0  0
   -1.4483    1.8020   -1.6082 C   0  0  0  0  0  0  0  0  0  0  0  0
   -0.6998    1.9479   -2.7610 C   0  0  0  0  0  0  0  0  0  0  0  0
    0.5193    1.2611   -2.9232 C   0  0  0  0  0  0  0  0  0  0  0  0
    1.0032    0.4165   -1.9390 C   0  0  0  0  0  0  0  0  0  0  0  0
    0.2541    0.2554   -0.7713 C   0  0  0  0  0  0  0  0  0  0  0  0
    0.4820   -0.5465    0.4368 C   0  0  0  0  0  0  0  0  0  0  0  0
    1.5162   -1.4111    0.8008 C   0  0  0  0  0  0  0  0  0  0  0  0
    1.4509   -2.0351    2.0351 C   0  0  0  0  0  0  0  0  0  0  0  0
    0.3697   -1.8151    2.9100 C   0  0  0  0  0  0  0  0  0  0  0  0
   -0.6627   -0.9660    2.5616 C   0  0  0  0  0  0  0  0  0  0  0  0
   -0.6144   -0.3340    1.3315 C   0  0  0  0  0  0  0  0  0  0  0  0
   -2.3806    2.3330   -1.4738 H   0  0  0  0  0  0  0  0  0  0  0  0
   -1.0453    2.6017   -3.5506 H   0  0  0  0  0  0  0  0  0  0  0  0
    1.0840    1.3974   -3.8258 H   0  0  0  0  0  0  0  0  0  0  0  0
    1.9399   -0.1043   -2.0586 H   0  0  0  0  0  0  0  0  0  0  0  0
    2.3391   -1.5845    0.1265 H   0  0  0  0  0  0  0  0  0  0  0  0
    2.2381   -2.7030    2.3334 H   0  0  0  0  0  0  0  0  0  0  0  0
    0.3555   -2.3209    3.8681 H   0  0  0  0  0  0  0  0  0  0  0  0
   -1.4932   -0.7899    3.2315 H   0  0  0  0  0  0  0  0  0  0  0  0
  1  2  2  0
  2  3  1  0
  3  4  2  0
  4  5  1  0
  5  6  2  0
  6  7  1  0
  7  8  2  0
  8  9  1  0
  9 10  2  0
 10 11  1  0
 11 12  2  0
 12 13  1  0
 13 14  2  0
 14  2  1  0
  8  3  1  0
 14  9  1  0
  4 15  1  0
  5 16  1  0
  6 17  1  0
  7 18  1  0
 10 19  1  0
 11 20  1  0
 12 21  1  0
 13 22  1  0
M  END
$$$$

     RDKit          3D

 22 24  0  0  0  0  0  0  0  0999 V2000
    0.5301    2.9315    0.7439 O   0  0  0  0  0  0  0  0  0  0  0  0
    0.3120    1.7437    0.4517 C   0  0  0  0  0  0  0  0  0  0  0  0
   -0.8618    1.1972   -0.2819 C   0  0  0  0  0  0  0  0  0  0  0  0
   -1.9705    1.8504   -0.7915 C   0  0  0  0  0  0  0  0  0  0  0  0
   -2.9352    1.1061   -1.4406 C   0  0  0  0  0  0  0  0  0  0  0  0
   -2.7949   -0.2875   -1.5836 C   0  0  0  0  0  0  0  0  0  0  0  0
   -1.6922   -0.9582   -1.0788 C   0  0  0  0  0  0  0  0  0  0  0  0
   -0.7087   -0.2178   -0.4197 C   0  0  0  0  0  0  0  0  0  0  0  0
    0.5596   -0.6087    0.2100 C   0  0  0  0  0  0  0  0  0  0  0  0
    1.1918   -1.8462    0.3468 C   0  0  0  0  0  0  0  0  0  0  0  0
    2.4043   -1.8966    1.0159 C   0  0  0  0  0  0  0  0  0  0  0  0
    2.9988   -0.7336    1.5418 C   0  0  0  0  0  0  0  0  0  0  0  0
    2.3871    0.4975    1.4076 C   0  0  0  0  0  0  0  0  0  0  0  0
    1.1753    0.5671    0.7432 C   0  0  0  0  0  0  0  0  0  0  0  0
   -2.0670    2.9215   -0.6786 H   0  0  0  0  0  0  0  0  0  0  0  0
   -3.8122    1.5925   -1.8495 H   0  0  0  0  0  0  0  0  0  0  0  0
   -3.5624   -0.8386   -2.0935 H   0  0  0  0  0  0  0  0  0  0  0  0
   -1.5863   -2.0250   -1.1860 H   0  0  0  0  0  0  0  0  0  0  0  0
    0.7415   -2.7355   -0.0634 H   0  0  0  0  0  0  0  0  0  0  0  0
    2.9056   -2.8395    1.1389 H   0  0  0  0  0  0  0  0  0  0  0  0
    3.9460   -0.8158    2.0620 H   0  0  0  0  0  0  0  0  0  0  0  0
    2.8393    1.3955    1.8052 H   0  0  0  0  0  0  0  0  0  0  0  0
  1  2  2  0
  2  3  1  0
  3  4  2  0
  4  5  1  0
  5  6  2  0
  6  7  1  0
  7  8  2  0
  8  9  1  0
  9 10  2  0
 10 11  1  0
 11 12  2  0
 12 13  1  0
 13 14  2  0
 14  2  1  0
  8  3  1  0
 14  9  1  0
  4 15  1  0
  5 16  1  0
  6 17  1  0
  7 18  1  0
 10 19  1  0
 11 20  1  0
 12 21  1  0
 13 22  1  0
M  END
$$$$

     RDKit          3D

 22 24  0  0  0  0  0  0  0  0999 V2000
    0.9152   -1.5286    2.5108 O   0  0  0  0  0  0  0  0  0  0  0  0
    0.5528   -0.9109    1.4933 C   0  0  0  0  0  0  0  0  0  0  0  0
    0.9892    0.4425    1.0478 C   0  0  0  0  0  0  0  0  0  0  0  0
    1.8826    1.3284    1.6242 C   0  0  0  0  0  0  0  0  0  0  0  0
    2.1101    2.5397    0.9993 C   0  0  0  0  0  0  0  0  0  0  0  0
    1.4526    2.8701   -0.2013 C   0  0  0  0  0  0  0  0  0  0  0  0
    0.5532    1.9992   -0.7909 C   0  0  0  0  0  0  0  0  0  0  0  0
    0.3119    0.7729   -0.1702 C   0  0  0  0  0  0  0  0  0  0  0  0
   -0.5639   -0.3493   -0.5298 C   0  0  0  0  0  0  0  0  0  0  0  0
   -1.4416   -0.5408   -1.5977 C   0  0  0  0  0  0  0  0  0  0  0  0
   -2.1485   -1.7298   -1.6663 C   0  0  0  0  0  0  0  0  0  0  0  0
   -1.9953   -2.7300   -0.6873 C   0  0  0  0  0  0  0  0  0  0  0  0
   -1.1307   -2.5530    0.3762 C   0  0  0  0  0  0  0  0  0  0  0  0
   -0.4209   -1.3678    0.4634 C   0  0  0  0  0  0  0  0  0  0  0  0
    2.3880    1.0723    2.5455 H   0  0  0  0  0  0  0  0  0  0  0  0
    2.8076    3.2481    1.4308 H   0  0  0  0  0  0  0  0  0  0  0  0
    1.6478    3.8193   -0.6644 H   0  0  0  0  0  0  0  0  0  0  0  0
    0.0492    2.2512   -1.7105 H   0  0  0  0  0  0  0  0  0  0  0  0
   -1.5602    0.2253   -2.3459 H   0  0  0  0  0  0  0  0  0  0  0  0
   -2.8304   -1.8933   -2.4781 H   0  0  0  0  0  0  0  0  0  0  0  0
   -2.5637   -3.6481   -0.7781 H   0  0  0  0  0  0  0  0  0  0  0  0
   -1.0049   -3.3176    1.1291 H   0  0  0  0  0  0  0  0  0  0  0  0
  1  2  2  0
  2  3  1  0
  3  4  2  0
  4  5  1  0
  5  6  2  0
  6  7  1  0
  7  8  2  0
  8  9  1  0
  9 10  2  0
 10 11  1  0
 11 12  2  0
 12 13  1  0
 13 14  2  0
 14  2  1  0
  8  3  1  0
 14  9  1  0
  4 15  1  0
  5 16  1  0
  6 17  1  0
  7 18  1  0
 10 19  1  0
 11 20  1  0
 12 21  1  0
 13 22  1  0
M  END
$$$$

     RDKit          3D

 22 24  0  0  0  0  0  0  0  0999 V2000
   -0.3289   -1.1751   -2.8162 O   0  0  0  0  0  0  0  0  0  0  0  0
   -0.1995   -0.6990   -1.6761 C   0  0  0  0  0  0  0  0  0  0  0  0
   -0.6683    0.6269   -1.1899 C   0  0  0  0  0  0  0  0  0  0  0  0
   -1.3383    1.6336   -1.8635 C   0  0  0  0  0  0  0  0  0  0  0  0
   -1.6471    2.7943   -1.1820 C   0  0  0  0  0  0  0  0  0  0  0  0
   -1.3016    2.9481    0.1743 C   0  0  0  0  0  0  0  0  0  0  0  0
   -0.6419    1.9460    0.8678 C   0  0  0  0  0  0  0  0  0  0  0  0
   -0.3123    0.7718    0.1880 C   0  0  0  0  0  0  0  0  0  0  0  0
    0.3849   -0.4490    0.6161 C   0  0  0  0  0  0  0  0  0  0  0  0
    0.9361   -0.8356    1.8389 C   0  0  0  0  0  0  0  0  0  0  0  0
    1.5525   -2.0724    1.9253 C   0  0  0  0  0  0  0  0  0  0  0  0
    1.6246   -2.9339    0.8146 C   0  0  0  0  0  0  0  0  0  0  0  0
    1.0801   -2.5685   -0.4008 C   0  0  0  0  0  0  0  0  0  0  0  0
    0.4625   -1.3354   -0.5045 C   0  0  0  0  0  0  0  0  0  0  0  0
   -1.6108    1.5055   -2.9013 H   0  0  0  0  0  0  0  0  0  0  0  0
   -2.1631    3.5997   -1.6903 H   0  0  0  0  0  0  0  0  0  0  0  0
   -1.5542    3.8628    0.6764 H   0  0  0  0  0  0  0  0  0  0  0  0
   -0.3861    2.0597    1.9081 H   0  0  0  0  0  0  0  0  0  0  0  0
    0.8764   -0.1817    2.6943 H   0  0  0  0  0  0  0  0  0  0  0  0
    1.9832   -2.3829    2.8598 H   0  0  0  0  0  0  0  0  0  0  0  0
    2.1193   -3.8923    0.9215 H   0  0  0  0  0  0  0  0  0  0  0  0
    1.1325   -3.2224   -1.2607 H   0  0  0  0  0  0  0  0  0  0  0  0
  1  2  2  0
  2  3  1  0
  3  4  2  0
  4  5  1  0
  5  6  2  0
  6  7  1  0
  7  8  2  0
  8  9  1  0
  9 10  2  0
 10 11  1  0
 11 12  2  0
 12 13  1  0
 13 14  2  0
 14  2  1  0
  8  3  1  0
 14  9  1  0
  4 15  1  0
  5 16  1  0
  6 17  1  0
  7 18  1  0
 10 19  1  0
 11 20  1  0
 12 21  1  0
 13 22  1  0
M  END
$$$$
