
     RDKit          3D

 24 26  0  0  0  0  0  0  0  0999 V2000
    0.9269   -2.1943    2.9306 O   0  0  0  0  0  0  0  0  0  0  0  0
    1.3531   -1.1098    2.5983 N   0  0  0  0  0  0  0  0  0  0  0  0
    2.2102   -0.4770    3.1816 O   0  0  0  0  0  0  0  0  0  0  0  0
    0.8323   -0.5393    1.3464 C   0  0  0  0  0  0  0  0  0  0  0  0
    1.7318   -0.0161    0.4909 C   0  0  0  0  0  0  0  0  0  0  0  0
    1.3183    0.5001   -0.7568 C   0  0  0  0  0  0  0  0  0  0  0  0
    2.2326    1.0408   -1.6875 C   0  0  0  0  0  0  0  0  0  0  0  0
    1.7639    1.5459   -2.8747 C   0  0  0  0  0  0  0  0  0  0  0  0
    0.3734    1.5044   -3.1176 C   0  0  0  0  0  0  0  0  0  0  0  0
   -0.5165    0.9878   -2.2599 N   0  0  0  0  0  0  0  0  0  0  0  0
   -0.0654    0.5004   -1.1074 C   0  0  0  0  0  0  0  0  0  0  0  0
   -1.0332   -0.0522   -0.1659 C   0  0  0  0  0  0  0  0  0  0  0  0
   -2.3090   -0.0431   -0.5127 N   0  0  0  0  0  0  0  0  0  0  0  0
   -3.2085   -0.5312    0.3541 C   0  0  0  0  0  0  0  0  0  0  0  0
   -2.8652   -1.0482    1.6126 C   0  0  0  0  0  0  0  0  0  0  0  0
   -1.5405   -1.0583    1.9776 C   0  0  0  0  0  0  0  0  0  0  0  0
   -0.5785   -0.5737    1.0874 C   0  0  0  0  0  0  0  0  0  0  0  0
    2.7848    0.0241    0.7425 H   0  0  0  0  0  0  0  0  0  0  0  0
    3.2745    1.0538   -1.4430 H   0  0  0  0  0  0  0  0  0  0  0  0
    2.4273    1.9680   -3.6062 H   0  0  0  0  0  0  0  0  0  0  0  0
   -0.0185    1.8999   -4.0388 H   0  0  0  0  0  0  0  0  0  0  0  0
   -4.2388   -0.5178    0.0390 H   0  0  0  0  0  0  0  0  0  0  0  0
   -3.6261   -1.4229    2.2752 H   0  0  0  0  0  0  0  0  0  0  0  0
   -1.2289   -1.4414    2.9342 H   0  0  0  0  0  0  0  0  0  0  0  0
  1  2  2  0
  2  3  1  0
  2  4  1  0
  4  5  2  0
  5  6  1  0
  6  7  1  0
  7  8  2  0
  8  9  1  0
  9 10  2  0
 10 11  1  0
 11 12  1  0
 12 13  2  0
 13 14  1  0
 14 15  2  0
 15 16  1  0
 16 17  2  0
 17  4  1  0
 11  6  2  0
 17 12  1  0
  5 18  1  0
  7 19  1  0
  8 20  1  0
  9 21  1  0
 14 22  1  0
 15 23  1  0
 16 24  1  0
M  CHG  2   2   1   3  -1
M  END
$$$$

     RDKit          3D

 24 26  0  0  0  0  0  0  0  0999 V2000
    2.6276   -2.6413   -0.5133 O   0  0  0  0  0  0  0  0  0  0  0  0
    1.6400   -2.6583    0.1827 N   0  0  0  0  0  0  0  0  0  0  0  0
    1.2709   -3.5900    0.8747 O   0  0  0  0  0  0  0  0  0  0  0  0
    0.7585   -1.4836    0.1258 C   0  0  0  0  0  0  0  0  0  0  0  0
   -0.5683   -1.7113    0.0683 C   0  0  0  0  0  0  0  0  0  0  0  0
   -1.4695   -0.6339   -0.0885 C   0  0  0  0  0  0  0  0  0  0  0  0
   -2.8626   -0.8251   -0.2137 C   0  0  0  0  0  0  0  0  0  0  0  0
   -3.6812    0.2661   -0.3624 C   0  0  0  0  0  0  0  0  0  0  0  0
   -3.0931    1.5489   -0.3854 C   0  0  0  0  0  0  0  0  0  0  0  0
   -1.7752    1.7655   -0.2664 N   0  0  0  0  0  0  0  0  0  0  0  0
   -0.9792    0.7071   -0.1299 C   0  0  0  0  0  0  0  0  0  0  0  0
    0.4548    0.9420   -0.0032 C   0  0  0  0  0  0  0  0  0  0  0  0
    0.8829    2.1940   -0.0172 N   0  0  0  0  0  0  0  0  0  0  0  0
    2.1981    2.4184    0.1244 C   0  0  0  0  0  0  0  0  0  0  0  0
    3.1437    1.3937    0.2832 C   0  0  0  0  0  0  0  0  0  0  0  0
    2.7034    0.0920    0.2894 C   0  0  0  0  0  0  0  0  0  0  0  0
    1.3405   -0.1737    0.1310 C   0  0  0  0  0  0  0  0  0  0  0  0
   -0.9658   -2.7170    0.1257 H   0  0  0  0  0  0  0  0  0  0  0  0
   -3.2550   -1.8200   -0.1861 H   0  0  0  0  0  0  0  0  0  0  0  0
   -4.7448    0.1583   -0.4671 H   0  0  0  0  0  0  0  0  0  0  0  0
   -3.7175    2.4174   -0.5088 H   0  0  0  0  0  0  0  0  0  0  0  0
    2.5142    3.4496    0.1166 H   0  0  0  0  0  0  0  0  0  0  0  0
    4.1886    1.6283    0.3967 H   0  0  0  0  0  0  0  0  0  0  0  0
    3.3892   -0.7270    0.4236 H   0  0  0  0  0  0  0  0  0  0  0  0
  1  2  2  0
  2  3  1  0
  2  4  1  0
  4  5  2  0
  5  6  1  0
  6  7  1  0
  7  8  2  0
  8  9  1  0
  9 10  2  0
 10 11  1  0
 11 12  1  0
 12 13  2  0
 13 14  1  0
 14 15  2  0
 15 16  1  0
 16 17  2  0
 17  4  1  0
 11  6  2  0
 17 12  1  0
  5 18  1  0
  7 19  1  0
  8 20  1  0
  9 21  1  0
 14 22  1  0
 15 23  1  0
 16 24  1  0
M  CHG  2   2   1   3  -1
M  END
$$$$

     RDKit          3D

 24 26  0  0  0  0  0  0  0  0999 V2000
    1.5096    0.3336   -3.5983 O   0  0  0  0  0  0  0  0  0  0  0  0
    1.8796    0.5752   -2.4613 N   0  0  0  0  0  0  0  0  0  0  0  0
    2.9228    1.1027   -2.1743 O   0  0  0  0  0  0  0  0  0  0  0  0
    0.9111    0.3005   -1.3882 C   0  0  0  0  0  0  0  0  0  0  0  0
   -0.3993    0.3594   -1.7258 C   0  0  0  0  0  0  0  0  0  0  0  0
   -1.4042    0.1688   -0.7504 C   0  0  0  0  0  0  0  0  0  0  0  0
   -2.7826    0.2706   -1.0420 C   0  0  0  0  0  0  0  0  0  0  0  0
   -3.7017    0.0539   -0.0450 C   0  0  0  0  0  0  0  0  0  0  0  0
   -3.2307   -0.2618    1.2467 C   0  0  0  0  0  0  0  0  0  0  0  0
   -1.9313   -0.3649    1.5590 N   0  0  0  0  0  0  0  0  0  0  0  0
   -1.0406   -0.1423    0.5938 C   0  0  0  0  0  0  0  0  0  0  0  0
    0.3700   -0.2335    0.9451 C   0  0  0  0  0  0  0  0  0  0  0  0
    0.6648   -0.5248    2.2015 N   0  0  0  0  0  0  0  0  0  0  0  0
    1.9553   -0.6095    2.5458 C   0  0  0  0  0  0  0  0  0  0  0  0
    3.0062   -0.4044    1.6390 C   0  0  0  0  0  0  0  0  0  0  0  0
    2.7023   -0.0981    0.3324 C   0  0  0  0  0  0  0  0  0  0  0  0
    1.3660    0.0002   -0.0580 C   0  0  0  0  0  0  0  0  0  0  0  0
   -0.6996    0.5496   -2.7477 H   0  0  0  0  0  0  0  0  0  0  0  0
   -3.0873    0.5099   -2.0401 H   0  0  0  0  0  0  0  0  0  0  0  0
   -4.7568    0.1214   -0.2298 H   0  0  0  0  0  0  0  0  0  0  0  0
   -3.9319   -0.4340    2.0472 H   0  0  0  0  0  0  0  0  0  0  0  0
    2.1661   -0.8546    3.5743 H   0  0  0  0  0  0  0  0  0  0  0  0
    4.0295   -0.4839    1.9654 H   0  0  0  0  0  0  0  0  0  0  0  0
    3.4828    0.0659   -0.3893 H   0  0  0  0  0  0  0  0  0  0  0  0
  1  2  2  0
  2  3  1  0
  2  4  1  0
  4  5  2  0
  5  6  1  0
  6  7  1  0
  7  8  2  0
  8  9  1  0
  9 10  2  0
 10 11  1  0
 11 12  1  0
 12 13  2  0
 13 14  1  0
 14 15  2  0
 15 16  1  0
 16 17  2  0
 17  4  1  0
 11  6  2  0
 17 12  1  0
  5 18  1  0
  7 19  1  0
  8 20  1  0
  9 21  1  0
 14 22  1  0
 15 23  1  0
 16 24  1  0
M  CHG  2   2   1   3  -1
M  END
$$$$

     RDKit          3D

 24 26  0  0  0  0  0  0  0  0999 V2000
    2.3722    2.5060    1.5477 O   0  0  0  0  0  0  0  0  0  0  0  0
    1.6588    1.6792    2.0657 N   0  0  0  0  0  0  0  0  0  0  0  0
    1.5443    1.4942    3.2613 O   0  0  0  0  0  0  0  0  0  0  0  0
    0.7893    0.8844    1.1859 C   0  0  0  0  0  0  0  0  0  0  0  0
   -0.4804    0.6926    1.5965 C   0  0  0  0  0  0  0  0  0  0  0  0
   -1.4025    0.0097    0.7719 C   0  0  0  0  0  0  0  0  0  0  0  0
   -2.7501   -0.1857    1.1427 C   0  0  0  0  0  0  0  0  0  0  0  0
   -3.5968   -0.8452    0.2866 C   0  0  0  0  0  0  0  0  0  0  0  0
   -3.0768   -1.3193   -0.9383 C   0  0  0  0  0  0  0  0  0  0  0  0
   -1.8025   -1.1548   -1.3170 N   0  0  0  0  0  0  0  0  0  0  0  0
   -0.9814   -0.5145   -0.4876 C   0  0  0  0  0  0  0  0  0  0  0  0
    0.4082   -0.3536   -0.8957 C   0  0  0  0  0  0  0  0  0  0  0  0
    0.7781   -0.8890   -2.0488 N   0  0  0  0  0  0  0  0  0  0  0  0
    2.0619   -0.7731   -2.4193 C   0  0  0  0  0  0  0  0  0  0  0  0
    3.0295   -0.1123   -1.6467 C   0  0  0  0  0  0  0  0  0  0  0  0
    2.6458    0.4470   -0.4499 C   0  0  0  0  0  0  0  0  0  0  0  0
    1.3134    0.3556   -0.0421 C   0  0  0  0  0  0  0  0  0  0  0  0
   -0.8175    1.0687    2.5548 H   0  0  0  0  0  0  0  0  0  0  0  0
   -3.0847    0.1830    2.0900 H   0  0  0  0  0  0  0  0  0  0  0  0
   -4.6297   -1.0017    0.5311 H   0  0  0  0  0  0  0  0  0  0  0  0
   -3.7182   -1.8464   -1.6251 H   0  0  0  0  0  0  0  0  0  0  0  0
    2.3345   -1.2241   -3.3601 H   0  0  0  0  0  0  0  0  0  0  0  0
    4.0495   -0.0550   -1.9840 H   0  0  0  0  0  0  0  0  0  0  0  0
    3.3552    0.9544    0.1805 H   0  0  0  0  0  0  0  0  0  0  0  0
  1  2  2  0
  2  3  1  0
  2  4  1  0
  4  5  2  0
  5  6  1  0
  6  7  1  0
  7  8  2  0
  8  9  1  0
  9 10  2  0
 10 11  1  0
 11 12  1  0
 12 13  2  0
 13 14  1  0
 14 15  2  0
 15 16  1  0
 16 17  2  0
 17  4  1  0
 11  6  2  0
 17 12  1  0
  5 18  1  0
  7 19  1  0
  8 20  1  0
  9 21  1  0
 14 22  1  0
 15 23  1  0
 16 24  1  0
M  CHG  2   2   1   3  -1
M  END
$$$$

     RDKit          3D

 24 26  0  0  0  0  0  0  0  0999 V2000
   -1.2372   -2.8504   -2.1593 O   0  0  0  0  0  0  0  0  0  0  0  0
   -1.6200   -2.4619   -1.0784 N   0  0  0  0  0  0  0  0  0  0  0  0
   -2.5254   -2.9577   -0.4393 O   0  0  0  0  0  0  0  0  0  0  0  0
   -0.8887   -1.3511   -0.4559 C   0  0  0  0  0  0  0  0  0  0  0  0
   -0.7355   -1.3938    0.8857 C   0  0  0  0  0  0  0  0  0  0  0  0
   -0.0005   -0.3898    1.5555 C   0  0  0  0  0  0  0  0  0  0  0  0
    0.2085   -0.4056    2.9518 C   0  0  0  0  0  0  0  0  0  0  0  0
    0.9411    0.5994    3.5340 C   0  0  0  0  0  0  0  0  0  0  0  0
    1.4523    1.6253    2.7089 C   0  0  0  0  0  0  0  0  0  0  0  0
    1.2587    1.6779    1.3837 N   0  0  0  0  0  0  0  0  0  0  0  0
    0.5576    0.6981    0.8177 C   0  0  0  0  0  0  0  0  0  0  0  0
    0.3638    0.7523   -0.6261 C   0  0  0  0  0  0  0  0  0  0  0  0
    0.8920    1.7758   -1.2777 N   0  0  0  0  0  0  0  0  0  0  0  0
    0.7085    1.8405   -2.6058 C   0  0  0  0  0  0  0  0  0  0  0  0
   -0.0304    0.8920   -3.3309 C   0  0  0  0  0  0  0  0  0  0  0  0
   -0.5816   -0.1698   -2.6537 C   0  0  0  0  0  0  0  0  0  0  0  0
   -0.3830   -0.2836   -1.2745 C   0  0  0  0  0  0  0  0  0  0  0  0
   -1.1687   -2.1922    1.4731 H   0  0  0  0  0  0  0  0  0  0  0  0
   -0.2008   -1.2090    3.5289 H   0  0  0  0  0  0  0  0  0  0  0  0
    1.1297    0.6148    4.5905 H   0  0  0  0  0  0  0  0  0  0  0  0
    2.0269    2.4262    3.1418 H   0  0  0  0  0  0  0  0  0  0  0  0
    1.1612    2.6761   -3.1120 H   0  0  0  0  0  0  0  0  0  0  0  0
   -0.1648    1.0026   -4.3937 H   0  0  0  0  0  0  0  0  0  0  0  0
   -1.1636   -0.9158   -3.1643 H   0  0  0  0  0  0  0  0  0  0  0  0
  1  2  2  0
  2  3  1  0
  2  4  1  0
  4  5  2  0
  5  6  1  0
  6  7  1  0
  7  8  2  0
  8  9  1  0
  9 10  2  0
 10 11  1  0
 11 12  1  0
 12 13  2  0
 13 14  1  0
 14 15  2  0
 15 16  1  0
 16 17  2  0
 17  4  1  0
 11  6  2  0
 17 12  1  0
  5 18  1  0
  7 19  1  0
  8 20  1  0
  9 21  1  0
 14 22  1  0
 15 23  1  0
 16 24  1  0
M  CHG  2   2   1   3  -1
M  END
$$$$

     RDKit          3D

 24 26  0  0  0  0  0  0  0  0999 V2000
   -2.1533    1.0694   -3.0801 O   0  0  0  0  0  0  0  0  0  0  0  0
   -1.0558    1.3445   -2.6237 N   0  0  0  0  0  0  0  0  0  0  0  0
   -0.2883    2.1617   -3.0643 O   0  0  0  0  0  0  0  0  0  0  0  0
   -0.6939    0.6840   -1.3584 C   0  0  0  0  0  0  0  0  0  0  0  0
   -1.6330    0.6598   -0.3893 C   0  0  0  0  0  0  0  0  0  0  0  0
   -1.3173    0.1618    0.8949 C   0  0  0  0  0  0  0  0  0  0  0  0
   -2.2449    0.1737    1.9599 C   0  0  0  0  0  0  0  0  0  0  0  0
   -1.8760   -0.3351    3.1807 C   0  0  0  0  0  0  0  0  0  0  0  0
   -0.5694   -0.8495    3.3255 C   0  0  0  0  0  0  0  0  0  0  0  0
    0.3358   -0.8700    2.3368 N   0  0  0  0  0  0  0  0  0  0  0  0
   -0.0185   -0.3733    1.1542 C   0  0  0  0  0  0  0  0  0  0  0  0
    0.9696   -0.3928    0.0817 C   0  0  0  0  0  0  0  0  0  0  0  0
    2.1641   -0.8945    0.3480 N   0  0  0  0  0  0  0  0  0  0  0  0
    3.0727   -0.9220   -0.6372 C   0  0  0  0  0  0  0  0  0  0  0  0
    2.8190   -0.4518   -1.9372 C   0  0  0  0  0  0  0  0  0  0  0  0
    1.5797    0.0790   -2.2130 C   0  0  0  0  0  0  0  0  0  0  0  0
    0.6227    0.1423   -1.1997 C   0  0  0  0  0  0  0  0  0  0  0  0
   -2.6342    1.0317   -0.5737 H   0  0  0  0  0  0  0  0  0  0  0  0
   -3.2223    0.5749    1.7901 H   0  0  0  0  0  0  0  0  0  0  0  0
   -2.5561   -0.3518    4.0112 H   0  0  0  0  0  0  0  0  0  0  0  0
   -0.2537   -1.2538    4.2721 H   0  0  0  0  0  0  0  0  0  0  0  0
    4.0373   -1.3347   -0.3902 H   0  0  0  0  0  0  0  0  0  0  0  0
    3.5802   -0.5028   -2.6950 H   0  0  0  0  0  0  0  0  0  0  0  0
    1.3355    0.4492   -3.1935 H   0  0  0  0  0  0  0  0  0  0  0  0
  1  2  2  0
  2  3  1  0
  2  4  1  0
  4  5  2  0
  5  6  1  0
  6  7  1  0
  7  8  2  0
  8  9  1  0
  9 10  2  0
 10 11  1  0
 11 12  1  0
 12 13  2  0
 13 14  1  0
 14 15  2  0
 15 16  1  0
 16 17  2  0
 17  4  1  0
 11  6  2  0
 17 12  1  0
  5 18  1  0
  7 19  1  0
  8 20  1  0
  9 21  1  0
 14 22  1  0
 15 23  1  0
 16 24  1  0
M  CHG  2   2   1   3  -1
M  END
$$$$

     RDKit          3D

 24 26  0  0  0  0  0  0  0  0999 V2000
    0.1291    0.5969    3.7233 O   0  0  0  0  0  0  0  0  0  0  0  0
    0.9423    0.0948    2.9869 N   0  0  0  0  0  0  0  0  0  0  0  0
    2.0271   -0.3423    3.3164 O   0  0  0  0  0  0  0  0  0  0  0  0
    0.5676   -0.0556    1.5740 C   0  0  0  0  0  0  0  0  0  0  0  0
    0.8827   -1.2276    0.9867 C   0  0  0  0  0  0  0  0  0  0  0  0
    0.4887   -1.4867   -0.3442 C   0  0  0  0  0  0  0  0  0  0  0  0
    0.7873   -2.7023   -0.9978 C   0  0  0  0  0  0  0  0  0  0  0  0
    0.3782   -2.8876   -2.2947 C   0  0  0  0  0  0  0  0  0  0  0  0
   -0.3338   -1.8455   -2.9273 C   0  0  0  0  0  0  0  0  0  0  0  0
   -0.6332   -0.6809   -2.3340 N   0  0  0  0  0  0  0  0  0  0  0  0
   -0.2238   -0.4931   -1.0836 C   0  0  0  0  0  0  0  0  0  0  0  0
   -0.5159    0.7909   -0.4548 C   0  0  0  0  0  0  0  0  0  0  0  0
   -1.1470    1.7025   -1.1775 N   0  0  0  0  0  0  0  0  0  0  0  0
   -1.3862    2.8998   -0.6190 C   0  0  0  0  0  0  0  0  0  0  0  0
   -1.0129    3.2273    0.6936 C   0  0  0  0  0  0  0  0  0  0  0  0
   -0.3658    2.2775    1.4493 C   0  0  0  0  0  0  0  0  0  0  0  0
   -0.1058    1.0194    0.8982 C   0  0  0  0  0  0  0  0  0  0  0  0
    1.4384   -1.9885    1.5223 H   0  0  0  0  0  0  0  0  0  0  0  0
    1.3314   -3.4551   -0.4666 H   0  0  0  0  0  0  0  0  0  0  0  0
    0.5939   -3.7949   -2.8259 H   0  0  0  0  0  0  0  0  0  0  0  0
   -0.6651   -1.9650   -3.9440 H   0  0  0  0  0  0  0  0  0  0  0  0
   -1.9026    3.6210   -1.2319 H   0  0  0  0  0  0  0  0  0  0  0  0
   -1.2217    4.2043    1.0926 H   0  0  0  0  0  0  0  0  0  0  0  0
   -0.0530    2.4908    2.4581 H   0  0  0  0  0  0  0  0  0  0  0  0
  1  2  2  0
  2  3  1  0
  2  4  1  0
  4  5  2  0
  5  6  1  0
  6  7  1  0
  7  8  2  0
  8  9  1  0
  9 10  2  0
 10 11  1  0
 11 12  1  0
 12 13  2  0
 13 14  1  0
 14 15  2  0
 15 16  1  0
 16 17  2  0
 17  4  1  0
 11  6  2  0
 17 12  1  0
  5 18  1  0
  7 19  1  0
  8 20  1  0
  9 21  1  0
 14 22  1  0
 15 23  1  0
 16 24  1  0
M  CHG  2   2   1   3  -1
M  END
$$$$

     RDKit          3D

 24 26  0  0  0  0  0  0  0  0999 V2000
   -1.2266    0.8557    3.4673 O   0  0  0  0  0  0  0  0  0  0  0  0
   -0.1016    0.8567    3.0130 N   0  0  0  0  0  0  0  0  0  0  0  0
    0.9070    1.1322    3.6297 O   0  0  0  0  0  0  0  0  0  0  0  0
    0.0656    0.4044    1.6247 C   0  0  0  0  0  0  0  0  0  0  0  0
    1.0875   -0.4394    1.3733 C   0  0  0  0  0  0  0  0  0  0  0  0
    1.2560   -0.9874    0.0820 C   0  0  0  0  0  0  0  0  0  0  0  0
    2.2843   -1.9073   -0.2180 C   0  0  0  0  0  0  0  0  0  0  0  0
    2.4005   -2.3912   -1.4972 C   0  0  0  0  0  0  0  0  0  0  0  0
    1.4783   -1.9489   -2.4732 C   0  0  0  0  0  0  0  0  0  0  0  0
    0.4855   -1.0829   -2.2200 N   0  0  0  0  0  0  0  0  0  0  0  0
    0.3788   -0.6084   -0.9803 C   0  0  0  0  0  0  0  0  0  0  0  0
   -0.6901    0.3441   -0.7076 C   0  0  0  0  0  0  0  0  0  0  0  0
   -1.4733    0.6952   -1.7141 N   0  0  0  0  0  0  0  0  0  0  0  0
   -2.4438    1.5891   -1.4770 C   0  0  0  0  0  0  0  0  0  0  0  0
   -2.6723    2.1663   -0.2177 C   0  0  0  0  0  0  0  0  0  0  0  0
   -1.8560    1.8049    0.8272 C   0  0  0  0  0  0  0  0  0  0  0  0
   -0.8462    0.8632    0.6165 C   0  0  0  0  0  0  0  0  0  0  0  0
    1.7901   -0.7130    2.1503 H   0  0  0  0  0  0  0  0  0  0  0  0
    2.9502   -2.2117    0.5635 H   0  0  0  0  0  0  0  0  0  0  0  0
    3.1689   -3.0939   -1.7616 H   0  0  0  0  0  0  0  0  0  0  0  0
    1.5532   -2.3129   -3.4852 H   0  0  0  0  0  0  0  0  0  0  0  0
   -3.0623    1.8594   -2.3175 H   0  0  0  0  0  0  0  0  0  0  0  0
   -3.4581    2.8893   -0.0844 H   0  0  0  0  0  0  0  0  0  0  0  0
   -1.9757    2.2363    1.8065 H   0  0  0  0  0  0  0  0  0  0  0  0
  1  2  2  0
  2  3  1  0
  2  4  1  0
  4  5  2  0
  5  6  1  0
  6  7  1  0
  7  8  2  0
  8  9  1  0
  9 10  2  0
 10 11  1  0
 11 12  1  0
 12 13  2  0
 13 14  1  0
 14 15  2  0
 15 16  1  0
 16 17  2  0
 17  4  1  0
 11  6  2  0
 17 12  1  0
  5 18  1  0
  7 19  1  0
  8 20  1  0
  9 21  1  0
 14 22  1  0
 15 23  1  0
 16 24  1  0
M  CHG  2   2   1   3  -1
M  END
$$$$

     RDKit          3D

 24 26  0  0  0  0  0  0  0  0999 V2000
    3.4396    1.0394   -1.2225 O   0  0  0  0  0  0  0  0  0  0  0  0
    2.9535   -0.0532   -1.0755 N   0  0  0  0  0  0  0  0  0  0  0  0
    3.5166   -1.1001   -1.3461 O   0  0  0  0  0  0  0  0  0  0  0  0
    1.5626   -0.1383   -0.6101 C   0  0  0  0  0  0  0  0  0  0  0  0
    0.8734   -1.2389   -0.9754 C   0  0  0  0  0  0  0  0  0  0  0  0
   -0.4895   -1.3832   -0.6314 C   0  0  0  0  0  0  0  0  0  0  0  0
   -1.2549   -2.5044   -1.0197 C   0  0  0  0  0  0  0  0  0  0  0  0
   -2.5782   -2.5742   -0.6610 C   0  0  0  0  0  0  0  0  0  0  0  0
   -3.1287   -1.5127    0.0909 C   0  0  0  0  0  0  0  0  0  0  0  0
   -2.4285   -0.4369    0.4756 N   0  0  0  0  0  0  0  0  0  0  0  0
   -1.1459   -0.3699    0.1306 C   0  0  0  0  0  0  0  0  0  0  0  0
   -0.3824    0.7914    0.5692 C   0  0  0  0  0  0  0  0  0  0  0  0
   -1.0150    1.6983    1.2957 N   0  0  0  0  0  0  0  0  0  0  0  0
   -0.3162    2.7582    1.7303 C   0  0  0  0  0  0  0  0  0  0  0  0
    1.0459    2.9499    1.4551 C   0  0  0  0  0  0  0  0  0  0  0  0
    1.6984    2.0147    0.6863 C   0  0  0  0  0  0  0  0  0  0  0  0
    0.9975    0.9077    0.2019 C   0  0  0  0  0  0  0  0  0  0  0  0
    1.3445   -2.0241   -1.5501 H   0  0  0  0  0  0  0  0  0  0  0  0
   -0.7831   -3.2847   -1.5831 H   0  0  0  0  0  0  0  0  0  0  0  0
   -3.1911   -3.4098   -0.9429 H   0  0  0  0  0  0  0  0  0  0  0  0
   -4.1664   -1.5407    0.3741 H   0  0  0  0  0  0  0  0  0  0  0  0
   -0.8577    3.4775    2.3220 H   0  0  0  0  0  0  0  0  0  0  0  0
    1.5633    3.8150    1.8341 H   0  0  0  0  0  0  0  0  0  0  0  0
    2.7421    2.1192    0.4519 H   0  0  0  0  0  0  0  0  0  0  0  0
  1  2  2  0
  2  3  1  0
  2  4  1  0
  4  5  2  0
  5  6  1  0
  6  7  1  0
  7  8  2  0
  8  9  1  0
  9 10  2  0
 10 11  1  0
 11 12  1  0
 12 13  2  0
 13 14  1  0
 14 15  2  0
 15 16  1  0
 16 17  2  0
 17  4  1  0
 11  6  2  0
 17 12  1  0
  5 18  1  0
  7 19  1  0
  8 20  1  0
  9 21  1  0
 14 22  1  0
 15 23  1  0
 16 24  1  0
M  CHG  2   2   1   3  -1
M  END
$$$$

     RDKit          3D

 24 26  0  0  0  0  0  0  0  0999 V2000
    1.0260   -3.6418    0.1012 O   0  0  0  0  0  0  0  0  0  0  0  0
    1.6894   -2.6490   -0.0886 N   0  0  0  0  0  0  0  0  0  0  0  0
    2.8735   -2.6587   -0.3766 O   0  0  0  0  0  0  0  0  0  0  0  0
    1.0058   -1.3507   -0.0858 C   0  0  0  0  0  0  0  0  0  0  0  0
    1.5651   -0.3703   -0.8313 C   0  0  0  0  0  0  0  0  0  0  0  0
    0.9198    0.8813   -0.9670 C   0  0  0  0  0  0  0  0  0  0  0  0
    1.4430    1.9235   -1.7647 C   0  0  0  0  0  0  0  0  0  0  0  0
    0.7654    3.1166   -1.8509 C   0  0  0  0  0  0  0  0  0  0  0  0
   -0.4374    3.2604   -1.1263 C   0  0  0  0  0  0  0  0  0  0  0  0
   -0.9580    2.2919   -0.3595 N   0  0  0  0  0  0  0  0  0  0  0  0
   -0.3074    1.1346   -0.2827 C   0  0  0  0  0  0  0  0  0  0  0  0
   -0.8896    0.0822    0.5395 C   0  0  0  0  0  0  0  0  0  0  0  0
   -2.0437    0.3389    1.1359 N   0  0  0  0  0  0  0  0  0  0  0  0
   -2.5737   -0.6062    1.9229 C   0  0  0  0  0  0  0  0  0  0  0  0
   -1.9514   -1.8395    2.1682 C   0  0  0  0  0  0  0  0  0  0  0  0
   -0.7570   -2.1108    1.5414 C   0  0  0  0  0  0  0  0  0  0  0  0
   -0.2050   -1.1690    0.6700 C   0  0  0  0  0  0  0  0  0  0  0  0
    2.5004   -0.5311   -1.3470 H   0  0  0  0  0  0  0  0  0  0  0  0
    2.3591    1.7605   -2.2941 H   0  0  0  0  0  0  0  0  0  0  0  0
    1.1314    3.9269   -2.4518 H   0  0  0  0  0  0  0  0  0  0  0  0
   -0.9866    4.1845   -1.1722 H   0  0  0  0  0  0  0  0  0  0  0  0
   -3.5256   -0.3810    2.3754 H   0  0  0  0  0  0  0  0  0  0  0  0
   -2.4047   -2.5560    2.8312 H   0  0  0  0  0  0  0  0  0  0  0  0
   -0.2385   -3.0374    1.7128 H   0  0  0  0  0  0  0  0  0  0  0  0
  1  2  2  0
  2  3  1  0
  2  4  1  0
  4  5  2  0
  5  6  1  0
  6  7  1  0
  7  8  2  0
  8  9  1  0
  9 10  2  0
 10 11  1  0
 11 12  1  0
 12 13  2  0
 13 14  1  0
 14 15  2  0
 15 16  1  0
 16 17  2  0
 17  4  1  0
 11  6  2  0
 17 12  1  0
  5 18  1  0
  7 19  1  0
  8 20  1  0
  9 21  1  0
 14 22  1  0
 15 23  1  0
 16 24  1  0
M  CHG  2   2   1   3  -1
M  END
$$$$

     RDKit          3D

 24 26  0  0  0  0  0  0  0  0999 V2000
   -1.9874    0.4469   -3.1842 O   0  0  0  0  0  0  0  0  0  0  0  0
   -0.7973    0.5298   -2.9870 N   0  0  0  0  0  0  0  0  0  0  0  0
    0.0361    0.8179   -3.8250 O   0  0  0  0  0  0  0  0  0  0  0  0
   -0.3223    0.3575   -1.6067 C   0  0  0  0  0  0  0  0  0  0  0  0
    0.6835    1.1592   -1.2013 C   0  0  0  0  0  0  0  0  0  0  0  0
    1.1481    1.1083    0.1331 C   0  0  0  0  0  0  0  0  0  0  0  0
    2.1770    1.9520    0.6077 C   0  0  0  0  0  0  0  0  0  0  0  0
    2.5868    1.8445    1.9133 C   0  0  0  0  0  0  0  0  0  0  0  0
    1.9615    0.8818    2.7346 C   0  0  0  0  0  0  0  0  0  0  0  0
    0.9834    0.0668    2.3142 N   0  0  0  0  0  0  0  0  0  0  0  0
    0.5815    0.1718    1.0509 C   0  0  0  0  0  0  0  0  0  0  0  0
   -0.4823   -0.7157    0.5933 C   0  0  0  0  0  0  0  0  0  0  0  0
   -0.9821   -1.5796    1.4628 N   0  0  0  0  0  0  0  0  0  0  0  0
   -1.9352   -2.4229    1.0445 C   0  0  0  0  0  0  0  0  0  0  0  0
   -2.4264   -2.4391   -0.2688 C   0  0  0  0  0  0  0  0  0  0  0  0
   -1.9167   -1.5382   -1.1728 C   0  0  0  0  0  0  0  0  0  0  0  0
   -0.9361   -0.6307   -0.7622 C   0  0  0  0  0  0  0  0  0  0  0  0
    1.1446    1.8625   -1.8823 H   0  0  0  0  0  0  0  0  0  0  0  0
    2.6158    2.6629   -0.0608 H   0  0  0  0  0  0  0  0  0  0  0  0
    3.3639    2.4676    2.3123 H   0  0  0  0  0  0  0  0  0  0  0  0
    2.2677    0.7760    3.7615 H   0  0  0  0  0  0  0  0  0  0  0  0
   -2.3246   -3.1113    1.7758 H   0  0  0  0  0  0  0  0  0  0  0  0
   -3.1850   -3.1453   -0.5588 H   0  0  0  0  0  0  0  0  0  0  0  0
   -2.2547   -1.5227   -2.1940 H   0  0  0  0  0  0  0  0  0  0  0  0
  1  2  2  0
  2  3  1  0
  2  4  1  0
  4  5  2  0
  5  6  1  0
  6  7  1  0
  7  8  2  0
  8  9  1  0
  9 10  2  0
 10 11  1  0
 11 12  1  0
 12 13  2  0
 13 14  1  0
 14 15  2  0
 15 16  1  0
 16 17  2  0
 17  4  1  0
 11  6  2  0
 17 12  1  0
  5 18  1  0
  7 19  1  0
  8 20  1  0
  9 21  1  0
 14 22  1  0
 15 23  1  0
 16 24  1  0
M  CHG  2   2   1   3  -1
M  END
$$$$

     RDKit          3D

 24 26  0  0  0  0  0  0  0  0999 V2000
    1.2293   -2.8540   -2.3782 O   0  0  0  0  0  0  0  0  0  0  0  0
    1.7449   -2.1135   -1.5494 N   0  0  0  0  0  0  0  0  0  0  0  0
    2.9222   -2.1194   -1.2884 O   0  0  0  0  0  0  0  0  0  0  0  0
    0.8467   -1.1562   -0.8883 C   0  0  0  0  0  0  0  0  0  0  0  0
   -0.4001   -1.0450   -1.4097 C   0  0  0  0  0  0  0  0  0  0  0  0
   -1.3260   -0.1184   -0.8821 C   0  0  0  0  0  0  0  0  0  0  0  0
   -2.6227    0.0449   -1.4168 C   0  0  0  0  0  0  0  0  0  0  0  0
   -3.4781    0.9569   -0.8512 C   0  0  0  0  0  0  0  0  0  0  0  0
   -3.0207    1.7117    0.2498 C   0  0  0  0  0  0  0  0  0  0  0  0
   -1.7971    1.5798    0.7842 N   0  0  0  0  0  0  0  0  0  0  0  0
   -0.9702    0.6901    0.2389 C   0  0  0  0  0  0  0  0  0  0  0  0
    0.3566    0.5338    0.8276 C   0  0  0  0  0  0  0  0  0  0  0  0
    0.6439    1.2759    1.8838 N   0  0  0  0  0  0  0  0  0  0  0  0
    1.8568    1.1485    2.4394 C   0  0  0  0  0  0  0  0  0  0  0  0
    2.8348    0.2678    1.9553 C   0  0  0  0  0  0  0  0  0  0  0  0
    2.5379   -0.5055    0.8585 C   0  0  0  0  0  0  0  0  0  0  0  0
    1.2849   -0.3963    0.2532 C   0  0  0  0  0  0  0  0  0  0  0  0
   -0.7050   -1.6620   -2.2434 H   0  0  0  0  0  0  0  0  0  0  0  0
   -2.9134   -0.5532   -2.2568 H   0  0  0  0  0  0  0  0  0  0  0  0
   -4.4720    1.1011   -1.2307 H   0  0  0  0  0  0  0  0  0  0  0  0
   -3.6673    2.4416    0.7058 H   0  0  0  0  0  0  0  0  0  0  0  0
    2.0561    1.7612    3.3029 H   0  0  0  0  0  0  0  0  0  0  0  0
    3.7968    0.2022    2.4344 H   0  0  0  0  0  0  0  0  0  0  0  0
    3.2615   -1.1919    0.4614 H   0  0  0  0  0  0  0  0  0  0  0  0
  1  2  2  0
  2  3  1  0
  2  4  1  0
  4  5  2  0
  5  6  1  0
  6  7  1  0
  7  8  2  0
  8  9  1  0
  9 10  2  0
 10 11  1  0
 11 12  1  0
 12 13  2  0
 13 14  1  0
 14 15  2  0
 15 16  1  0
 16 17  2  0
 17  4  1  0
 11  6  2  0
 17 12  1  0
  5 18  1  0
  7 19  1  0
  8 20  1  0
  9 21  1  0
 14 22  1  0
 15 23  1  0
 16 24  1  0
M  CHG  2   2   1   3  -1
M  END
$$$$
