
     RDKit          3D

 20 21  0  0  0  0  0  0  0  0999 V2000
    0.8648   -3.1454    1.2077 C   0  0  0  0  0  0  0  0  0  0  0  0
   -0.1449   -3.0448    0.2586 C   0  0  0  0  0  0  0  0  0  0  0  0
   -0.4952   -1.7969   -0.2347 C   0  0  0  0  0  0  0  0  0  0  0  0
    0.1791   -0.6786    0.2518 C   0  0  0  0  0  0  0  0  0  0  0  0
   -0.1774    0.6806   -0.2538 C   0  0  0  0  0  0  0  0  0  0  0  0
    0.4828    1.8001    0.2493 C   0  0  0  0  0  0  0  0  0  0  0  0
    0.1337    3.0467   -0.2453 C   0  0  0  0  0  0  0  0  0  0  0  0
   -0.8589    3.1435   -1.2135 C   0  0  0  0  0  0  0  0  0  0  0  0
   -1.4647    1.9640   -1.6451 C   0  0  0  0  0  0  0  0  0  0  0  0
   -1.1387    0.7607   -1.1874 N   0  0  0  0  0  0  0  0  0  0  0  0
    1.1549   -0.7628    1.1686 N   0  0  0  0  0  0  0  0  0  0  0  0
    1.4820   -1.9671    1.6255 C   0  0  0  0  0  0  0  0  0  0  0  0
    1.1644   -4.0947    1.6178 H   0  0  0  0  0  0  0  0  0  0  0  0
   -0.6525   -3.9269   -0.0988 H   0  0  0  0  0  0  0  0  0  0  0  0
   -1.2736   -1.6873   -0.9736 H   0  0  0  0  0  0  0  0  0  0  0  0
    1.2410    1.6897    1.0087 H   0  0  0  0  0  0  0  0  0  0  0  0
    0.6351    3.9300    0.1171 H   0  0  0  0  0  0  0  0  0  0  0  0
   -1.1582    4.0928   -1.6225 H   0  0  0  0  0  0  0  0  0  0  0  0
   -2.2481    1.9939   -2.3925 H   0  0  0  0  0  0  0  0  0  0  0  0
    2.2744   -1.9975    2.3621 H   0  0  0  0  0  0  0  0  0  0  0  0
  1  2  2  0
  2  3  1  0
  3  4  2  0
  4  5  1  0
  5  6  2  0
  6  7  1  0
  7  8  2  0
  8  9  1  0
  9 10  2  0
  4 11  1  0
 11 12  2  0
 12  1  1  0
 10  5  1  0
  1 13  1  0
  2 14  1  0
  3 15  1  0
  6 16  1  0
  7 17  1  0
  8 18  1  0
  9 19  1  0
 12 20  1  0
M  END
$$$$

     RDKit          3D

 20 21  0  0  0  0  0  0  0  0999 V2000
    1.7198   -2.3137    1.9455 C   0  0  0  0  0  0  0  0  0  0  0  0
    0.6201   -1.6647    2.4948 C   0  0  0  0  0  0  0  0  0  0  0  0
   -0.0794   -0.7433    1.7304 C   0  0  0  0  0  0  0  0  0  0  0  0
    0.3583   -0.4947    0.4298 C   0  0  0  0  0  0  0  0  0  0  0  0
   -0.3637    0.4934   -0.4259 C   0  0  0  0  0  0  0  0  0  0  0  0
    0.1142    0.7880   -1.7032 C   0  0  0  0  0  0  0  0  0  0  0  0
   -0.5865    1.7024   -2.4738 C   0  0  0  0  0  0  0  0  0  0  0  0
   -1.7308    2.2962   -1.9566 C   0  0  0  0  0  0  0  0  0  0  0  0
   -2.1206    1.9405   -0.6661 C   0  0  0  0  0  0  0  0  0  0  0  0
   -1.4638    1.0640    0.0854 N   0  0  0  0  0  0  0  0  0  0  0  0
    1.4202   -1.1121   -0.1084 N   0  0  0  0  0  0  0  0  0  0  0  0
    2.0731   -1.9976    0.6346 C   0  0  0  0  0  0  0  0  0  0  0  0
    2.2852   -3.0373    2.5061 H   0  0  0  0  0  0  0  0  0  0  0  0
    0.3075   -1.8777    3.5047 H   0  0  0  0  0  0  0  0  0  0  0  0
   -0.9359   -0.2209    2.1279 H   0  0  0  0  0  0  0  0  0  0  0  0
    1.0084    0.3165   -2.0769 H   0  0  0  0  0  0  0  0  0  0  0  0
   -0.2452    1.9435   -3.4687 H   0  0  0  0  0  0  0  0  0  0  0  0
   -2.3021    3.0103   -2.5241 H   0  0  0  0  0  0  0  0  0  0  0  0
   -3.0009    2.3836   -0.2191 H   0  0  0  0  0  0  0  0  0  0  0  0
    2.9220   -2.4763    0.1636 H   0  0  0  0  0  0  0  0  0  0  0  0
  1  2  2  0
  2  3  1  0
  3  4  2  0
  4  5  1  0
  5  6  2  0
  6  7  1  0
  7  8  2  0
  8  9  1  0
  9 10  2  0
  4 11  1  0
 11 12  2  0
 12  1  1  0
 10  5  1  0
  1 13  1  0
  2 14  1  0
  3 15  1  0
  6 16  1  0
  7 17  1  0
  8 18  1  0
  9 19  1  0
 12 20  1  0
M  END
$$$$

     RDKit          3D

 20 21  0  0  0  0  0  0  0  0999 V2000
   -1.9314   -0.3805    2.8685 C   0  0  0  0  0  0  0  0  0  0  0  0
   -2.1288    0.7377    2.0671 C   0  0  0  0  0  0  0  0  0  0  0  0
   -1.3650    0.8989    0.9214 C   0  0  0  0  0  0  0  0  0  0  0  0
   -0.4192   -0.0778    0.6144 C   0  0  0  0  0  0  0  0  0  0  0  0
    0.4230    0.0696   -0.6101 C   0  0  0  0  0  0  0  0  0  0  0  0
    1.3242   -0.9341   -0.9613 C   0  0  0  0  0  0  0  0  0  0  0  0
    2.0914   -0.7620   -2.1035 C   0  0  0  0  0  0  0  0  0  0  0  0
    1.9421    0.3952   -2.8576 C   0  0  0  0  0  0  0  0  0  0  0  0
    1.0137    1.3395   -2.4212 C   0  0  0  0  0  0  0  0  0  0  0  0
    0.2671    1.1872   -1.3349 N   0  0  0  0  0  0  0  0  0  0  0  0
   -0.2220   -1.1639    1.3775 N   0  0  0  0  0  0  0  0  0  0  0  0
   -0.9597   -1.2998    2.4742 C   0  0  0  0  0  0  0  0  0  0  0  0
   -2.5011   -0.5383    3.7678 H   0  0  0  0  0  0  0  0  0  0  0  0
   -2.8732    1.4741    2.3271 H   0  0  0  0  0  0  0  0  0  0  0  0
   -1.4883    1.7577    0.2803 H   0  0  0  0  0  0  0  0  0  0  0  0
    1.4226   -1.8159   -0.3492 H   0  0  0  0  0  0  0  0  0  0  0  0
    2.7915   -1.5255   -2.4031 H   0  0  0  0  0  0  0  0  0  0  0  0
    2.5190    0.5672   -3.7493 H   0  0  0  0  0  0  0  0  0  0  0  0
    0.8657    2.2572   -2.9753 H   0  0  0  0  0  0  0  0  0  0  0  0
   -0.7715   -2.1865    3.0672 H   0  0  0  0  0  0  0  0  0  0  0  0
  1  2  2  0
  2  3  1  0
  3  4  2  0
  4  5  1  0
  5  6  2  0
  6  7  1  0
  7  8  2  0
  8  9  1  0
  9 10  2  0
  4 11  1  0
 11 12  2  0
 12  1  1  0
 10  5  1  0
  1 13  1  0
  2 14  1  0
  3 15  1  0
  6 16  1  0
  7 17  1  0
  8 18  1  0
  9 19  1  0
 12 20  1  0
M  END
$$$$

     RDKit          3D

 20 21  0  0  0  0  0  0  0  0999 V2000
    0.6682    3.1559   -1.2984 C   0  0  0  0  0  0  0  0  0  0  0  0
    1.3754    2.0652   -1.7924 C   0  0  0  0  0  0  0  0  0  0  0  0
    1.1261    0.8020   -1.2786 C   0  0  0  0  0  0  0  0  0  0  0  0
    0.1651    0.6736   -0.2781 C   0  0  0  0  0  0  0  0  0  0  0  0
   -0.1393   -0.6733    0.2915 C   0  0  0  0  0  0  0  0  0  0  0  0
   -1.1410   -0.8029    1.2511 C   0  0  0  0  0  0  0  0  0  0  0  0
   -1.4076   -2.0659    1.7557 C   0  0  0  0  0  0  0  0  0  0  0  0
   -0.6762   -3.1551    1.2989 C   0  0  0  0  0  0  0  0  0  0  0  0
    0.3082   -2.9199    0.3409 C   0  0  0  0  0  0  0  0  0  0  0  0
    0.5746   -1.7175   -0.1602 N   0  0  0  0  0  0  0  0  0  0  0  0
   -0.5213    1.7194    0.2088 N   0  0  0  0  0  0  0  0  0  0  0  0
   -0.2672    2.9224   -0.2909 C   0  0  0  0  0  0  0  0  0  0  0  0
    0.8271    4.1502   -1.6765 H   0  0  0  0  0  0  0  0  0  0  0  0
    2.1082    2.1943   -2.5731 H   0  0  0  0  0  0  0  0  0  0  0  0
    1.6570   -0.0651   -1.6388 H   0  0  0  0  0  0  0  0  0  0  0  0
   -1.6874    0.0634    1.5905 H   0  0  0  0  0  0  0  0  0  0  0  0
   -2.1807   -2.1976    2.4961 H   0  0  0  0  0  0  0  0  0  0  0  0
   -0.8557   -4.1507    1.6669 H   0  0  0  0  0  0  0  0  0  0  0  0
    0.9034   -3.7412   -0.0413 H   0  0  0  0  0  0  0  0  0  0  0  0
   -0.8368    3.7428    0.1280 H   0  0  0  0  0  0  0  0  0  0  0  0
  1  2  2  0
  2  3  1  0
  3  4  2  0
  4  5  1  0
  5  6  2  0
  6  7  1  0
  7  8  2  0
  8  9  1  0
  9 10  2  0
  4 11  1  0
 11 12  2  0
 12  1  1  0
 10  5  1  0
  1 13  1  0
  2 14  1  0
  3 15  1  0
  6 16  1  0
  7 17  1  0
  8 18  1  0
  9 19  1  0
 12 20  1  0
M  END
$$$$

     RDKit          3D

 20 21  0  0  0  0  0  0  0  0999 V2000
   -1.4526   -2.0067   -2.4409 C   0  0  0  0  0  0  0  0  0  0  0  0
   -2.1837   -0.9459   -1.9181 C   0  0  0  0  0  0  0  0  0  0  0  0
   -1.6109   -0.1304   -0.9543 C   0  0  0  0  0  0  0  0  0  0  0  0
   -0.3108   -0.4140   -0.5387 C   0  0  0  0  0  0  0  0  0  0  0  0
    0.3309    0.4304    0.5117 C   0  0  0  0  0  0  0  0  0  0  0  0
    1.6157    0.1292    0.9617 C   0  0  0  0  0  0  0  0  0  0  0  0
    2.1702    0.9260    1.9507 C   0  0  0  0  0  0  0  0  0  0  0  0
    1.4418    1.9988    2.4512 C   0  0  0  0  0  0  0  0  0  0  0  0
    0.1683    2.2211    1.9276 C   0  0  0  0  0  0  0  0  0  0  0  0
   -0.3809    1.4636    0.9862 N   0  0  0  0  0  0  0  0  0  0  0  0
    0.4071   -1.4298   -1.0417 N   0  0  0  0  0  0  0  0  0  0  0  0
   -0.1567   -2.2002   -1.9644 C   0  0  0  0  0  0  0  0  0  0  0  0
   -1.8647   -2.6635   -3.1876 H   0  0  0  0  0  0  0  0  0  0  0  0
   -3.1909   -0.7556   -2.2540 H   0  0  0  0  0  0  0  0  0  0  0  0
   -2.1524    0.7007   -0.5270 H   0  0  0  0  0  0  0  0  0  0  0  0
    2.1573   -0.7085    0.5517 H   0  0  0  0  0  0  0  0  0  0  0  0
    3.1606    0.7138    2.3220 H   0  0  0  0  0  0  0  0  0  0  0  0
    1.8372    2.6400    3.2195 H   0  0  0  0  0  0  0  0  0  0  0  0
   -0.4353    3.0451    2.2866 H   0  0  0  0  0  0  0  0  0  0  0  0
    0.4498   -3.0141   -2.3422 H   0  0  0  0  0  0  0  0  0  0  0  0
  1  2  2  0
  2  3  1  0
  3  4  2  0
  4  5  1  0
  5  6  2  0
  6  7  1  0
  7  8  2  0
  8  9  1  0
  9 10  2  0
  4 11  1  0
 11 12  2  0
 12  1  1  0
 10  5  1  0
  1 13  1  0
  2 14  1  0
  3 15  1  0
  6 16  1  0
  7 17  1  0
  8 18  1  0
  9 19  1  0
 12 20  1  0
M  END
$$$$

     RDKit          3D

 20 21  0  0  0  0  0  0  0  0999 V2000
   -3.0701   -1.4850   -0.6887 C   0  0  0  0  0  0  0  0  0  0  0  0
   -2.2968   -1.0206   -1.7463 C   0  0  0  0  0  0  0  0  0  0  0  0
   -1.0701   -0.4296   -1.4865 C   0  0  0  0  0  0  0  0  0  0  0  0
   -0.6569   -0.3200   -0.1596 C   0  0  0  0  0  0  0  0  0  0  0  0
    0.6563    0.3175    0.1587 C   0  0  0  0  0  0  0  0  0  0  0  0
    1.0849    0.4032    1.4830 C   0  0  0  0  0  0  0  0  0  0  0  0
    2.3068    1.0034    1.7442 C   0  0  0  0  0  0  0  0  0  0  0  0
    3.0651    1.4951    0.6894 C   0  0  0  0  0  0  0  0  0  0  0  0
    2.5488    1.3609   -0.5990 C   0  0  0  0  0  0  0  0  0  0  0  0
    1.3804    0.7902   -0.8662 N   0  0  0  0  0  0  0  0  0  0  0  0
   -1.3924   -0.7687    0.8695 N   0  0  0  0  0  0  0  0  0  0  0  0
   -2.5646   -1.3333    0.6020 C   0  0  0  0  0  0  0  0  0  0  0  0
   -4.0284   -1.9469   -0.8495 H   0  0  0  0  0  0  0  0  0  0  0  0
   -2.6403   -1.1208   -2.7637 H   0  0  0  0  0  0  0  0  0  0  0  0
   -0.4477   -0.0574   -2.2852 H   0  0  0  0  0  0  0  0  0  0  0  0
    0.4735    0.0110    2.2800 H   0  0  0  0  0  0  0  0  0  0  0  0
    2.6623    1.0814    2.7595 H   0  0  0  0  0  0  0  0  0  0  0  0
    4.0168    1.9697    0.8520 H   0  0  0  0  0  0  0  0  0  0  0  0
    3.1047    1.7300   -1.4504 H   0  0  0  0  0  0  0  0  0  0  0  0
   -3.1323   -1.6801    1.4567 H   0  0  0  0  0  0  0  0  0  0  0  0
  1  2  2  0
  2  3  1  0
  3  4  2  0
  4  5  1  0
  5  6  2  0
  6  7  1  0
  7  8  2  0
  8  9  1  0
  9 10  2  0
  4 11  1  0
 11 12  2  0
 12  1  1  0
 10  5  1  0
  1 13  1  0
  2 14  1  0
  3 15  1  0
  6 16  1  0
  7 17  1  0
  8 18  1  0
  9 19  1  0
 12 20  1  0
M  END
$$$$

     RDKit          3D

 20 21  0  0  0  0  0  0  0  0999 V2000
   -1.8702    2.3618   -1.7361 C   0  0  0  0  0  0  0  0  0  0  0  0
   -0.8297    2.7967   -0.9236 C   0  0  0  0  0  0  0  0  0  0  0  0
   -0.0784    1.8661   -0.2226 C   0  0  0  0  0  0  0  0  0  0  0  0
   -0.3998    0.5167   -0.3621 C   0  0  0  0  0  0  0  0  0  0  0  0
    0.3946   -0.5151    0.3694 C   0  0  0  0  0  0  0  0  0  0  0  0
    0.0701   -1.8635    0.2331 C   0  0  0  0  0  0  0  0  0  0  0  0
    0.8253   -2.7947    0.9295 C   0  0  0  0  0  0  0  0  0  0  0  0
    1.8783   -2.3635    1.7271 C   0  0  0  0  0  0  0  0  0  0  0  0
    2.1232   -0.9931    1.7932 C   0  0  0  0  0  0  0  0  0  0  0  0
    1.4069   -0.0875    1.1377 N   0  0  0  0  0  0  0  0  0  0  0  0
   -1.4069    0.0846   -1.1385 N   0  0  0  0  0  0  0  0  0  0  0  0
   -2.1144    0.9903   -1.8039 C   0  0  0  0  0  0  0  0  0  0  0  0
   -2.4725    3.0518   -2.3007 H   0  0  0  0  0  0  0  0  0  0  0  0
   -0.6025    3.8479   -0.8376 H   0  0  0  0  0  0  0  0  0  0  0  0
    0.7336    2.1703    0.4200 H   0  0  0  0  0  0  0  0  0  0  0  0
   -0.7538   -2.1656   -0.3943 H   0  0  0  0  0  0  0  0  0  0  0  0
    0.5951   -3.8450    0.8479 H   0  0  0  0  0  0  0  0  0  0  0  0
    2.4889   -3.0558    2.2799 H   0  0  0  0  0  0  0  0  0  0  0  0
    2.9294   -0.6104    2.4052 H   0  0  0  0  0  0  0  0  0  0  0  0
   -2.9170    0.6078   -2.4237 H   0  0  0  0  0  0  0  0  0  0  0  0
  1  2  2  0
  2  3  1  0
  3  4  2  0
  4  5  1  0
  5  6  2  0
  6  7  1  0
  7  8  2  0
  8  9  1  0
  9 10  2  0
  4 11  1  0
 11 12  2  0
 12  1  1  0
 10  5  1  0
  1 13  1  0
  2 14  1  0
  3 15  1  0
  6 16  1  0
  7 17  1  0
  8 18  1  0
  9 19  1  0
 12 20  1  0
M  END
$$$$

     RDKit          3D

 20 21  0  0  0  0  0  0  0  0999 V2000
   -2.3992    1.2211    2.2011 C   0  0  0  0  0  0  0  0  0  0  0  0
   -2.2193    1.8645    0.9821 C   0  0  0  0  0  0  0  0  0  0  0  0
   -1.2652    1.3887    0.0950 C   0  0  0  0  0  0  0  0  0  0  0  0
   -0.5185    0.2709    0.4635 C   0  0  0  0  0  0  0  0  0  0  0  0
    0.5176   -0.2682   -0.4662 C   0  0  0  0  0  0  0  0  0  0  0  0
    1.2544   -1.3934   -0.1007 C   0  0  0  0  0  0  0  0  0  0  0  0
    2.2101   -1.8710   -0.9853 C   0  0  0  0  0  0  0  0  0  0  0  0
    2.4018   -1.2223   -2.1998 C   0  0  0  0  0  0  0  0  0  0  0  0
    1.6133   -0.1043   -2.4702 C   0  0  0  0  0  0  0  0  0  0  0  0
    0.6949    0.3663   -1.6344 N   0  0  0  0  0  0  0  0  0  0  0  0
   -0.6852   -0.3599    1.6355 N   0  0  0  0  0  0  0  0  0  0  0  0
   -1.5979    0.1138    2.4767 C   0  0  0  0  0  0  0  0  0  0  0  0
   -3.1275    1.5600    2.9176 H   0  0  0  0  0  0  0  0  0  0  0  0
   -2.8171    2.7240    0.7220 H   0  0  0  0  0  0  0  0  0  0  0  0
   -1.0915    1.8680   -0.8555 H   0  0  0  0  0  0  0  0  0  0  0  0
    1.0778   -1.8693    0.8516 H   0  0  0  0  0  0  0  0  0  0  0  0
    2.7968   -2.7386   -0.7289 H   0  0  0  0  0  0  0  0  0  0  0  0
    3.1300   -1.5652   -2.9144 H   0  0  0  0  0  0  0  0  0  0  0  0
    1.7266    0.4332   -3.4035 H   0  0  0  0  0  0  0  0  0  0  0  0
   -1.7017   -0.4183    3.4137 H   0  0  0  0  0  0  0  0  0  0  0  0
  1  2  2  0
  2  3  1  0
  3  4  2  0
  4  5  1  0
  5  6  2  0
  6  7  1  0
  7  8  2  0
  8  9  1  0
  9 10  2  0
  4 11  1  0
 11 12  2  0
 12  1  1  0
 10  5  1  0
  1 13  1  0
  2 14  1  0
  3 15  1  0
  6 16  1  0
  7 17  1  0
  8 18  1  0
  9 19  1  0
 12 20  1  0
M  END
$$$$

     RDKit          3D

 20 21  0  0  0  0  0  0  0  0999 V2000
   -0.4456   -1.6284   -3.0397 C   0  0  0  0  0  0  0  0  0  0  0  0
    0.5325   -0.6454   -2.9408 C   0  0  0  0  0  0  0  0  0  0  0  0
    0.7158    0.0155   -1.7359 C   0  0  0  0  0  0  0  0  0  0  0  0
   -0.0921   -0.3400   -0.6580 C   0  0  0  0  0  0  0  0  0  0  0  0
    0.0870    0.3460    0.6563 C   0  0  0  0  0  0  0  0  0  0  0  0
   -0.7174   -0.0139    1.7357 C   0  0  0  0  0  0  0  0  0  0  0  0
   -0.5298    0.6419    2.9425 C   0  0  0  0  0  0  0  0  0  0  0  0
    0.4520    1.6213    3.0423 C   0  0  0  0  0  0  0  0  0  0  0  0
    1.2031    1.9088    1.9033 C   0  0  0  0  0  0  0  0  0  0  0  0
    1.0353    1.2936    0.7377 N   0  0  0  0  0  0  0  0  0  0  0  0
   -1.0405   -1.2876   -0.7402 N   0  0  0  0  0  0  0  0  0  0  0  0
   -1.2088   -1.9028   -1.9052 C   0  0  0  0  0  0  0  0  0  0  0  0
   -0.6183   -2.1634   -3.9575 H   0  0  0  0  0  0  0  0  0  0  0  0
    1.1508   -0.3979   -3.7890 H   0  0  0  0  0  0  0  0  0  0  0  0
    1.4596    0.7889   -1.6273 H   0  0  0  0  0  0  0  0  0  0  0  0
   -1.4665   -0.7826    1.6214 H   0  0  0  0  0  0  0  0  0  0  0  0
   -1.1402    0.3877    3.7948 H   0  0  0  0  0  0  0  0  0  0  0  0
    0.6335    2.1474    3.9631 H   0  0  0  0  0  0  0  0  0  0  0  0
    1.9770    2.6667    1.9354 H   0  0  0  0  0  0  0  0  0  0  0  0
   -1.9876   -2.6558   -1.9387 H   0  0  0  0  0  0  0  0  0  0  0  0
  1  2  2  0
  2  3  1  0
  3  4  2  0
  4  5  1  0
  5  6  2  0
  6  7  1  0
  7  8  2  0
  8  9  1  0
  9 10  2  0
  4 11  1  0
 11 12  2  0
 12  1  1  0
 10  5  1  0
  1 13  1  0
  2 14  1  0
  3 15  1  0
  6 16  1  0
  7 17  1  0
  8 18  1  0
  9 19  1  0
 12 20  1  0
M  END
$$$$

     RDKit          3D

 20 21  0  0  0  0  0  0  0  0999 V2000
    1.3702    1.2324   -2.9470 C   0  0  0  0  0  0  0  0  0  0  0  0
    2.1668    0.4550   -2.1136 C   0  0  0  0  0  0  0  0  0  0  0  0
    1.6316   -0.0504   -0.9387 C   0  0  0  0  0  0  0  0  0  0  0  0
    0.3071    0.2565   -0.6306 C   0  0  0  0  0  0  0  0  0  0  0  0
   -0.3014   -0.2619    0.6304 C   0  0  0  0  0  0  0  0  0  0  0  0
   -1.6031    0.1046    0.9708 C   0  0  0  0  0  0  0  0  0  0  0  0
   -2.1432   -0.3975    2.1441 C   0  0  0  0  0  0  0  0  0  0  0  0
   -1.3795   -1.2443    2.9382 C   0  0  0  0  0  0  0  0  0  0  0  0
   -0.0877   -1.5501    2.5097 C   0  0  0  0  0  0  0  0  0  0  0  0
    0.4467   -1.0751    1.3908 N   0  0  0  0  0  0  0  0  0  0  0  0
   -0.4714    1.0061   -1.4265 N   0  0  0  0  0  0  0  0  0  0  0  0
    0.0558    1.4762   -2.5506 C   0  0  0  0  0  0  0  0  0  0  0  0
    1.7461    1.6371   -3.8703 H   0  0  0  0  0  0  0  0  0  0  0  0
    3.1898    0.2389   -2.3787 H   0  0  0  0  0  0  0  0  0  0  0  0
    2.2161   -0.6655   -0.2720 H   0  0  0  0  0  0  0  0  0  0  0  0
   -2.1703    0.7648    0.3342 H   0  0  0  0  0  0  0  0  0  0  0  0
   -3.1502   -0.1349    2.4303 H   0  0  0  0  0  0  0  0  0  0  0  0
   -1.7622   -1.6563    3.8553 H   0  0  0  0  0  0  0  0  0  0  0  0
    0.5404   -2.2098    3.0949 H   0  0  0  0  0  0  0  0  0  0  0  0
   -0.6013    2.0743   -3.1706 H   0  0  0  0  0  0  0  0  0  0  0  0
  1  2  2  0
  2  3  1  0
  3  4  2  0
  4  5  1  0
  5  6  2  0
  6  7  1  0
  7  8  2  0
  8  9  1  0
  9 10  2  0
  4 11  1  0
 11 12  2  0
 12  1  1  0
 10  5  1  0
  1 13  1  0
  2 14  1  0
  3 15  1  0
  6 16  1  0
  7 17  1  0
  8 18  1  0
  9 19  1  0
 12 20  1  0
M  END
$$$$

     RDKit          3D

 20 21  0  0  0  0  0  0  0  0999 V2000
    2.8022   -1.0415   -1.7768 C   0  0  0  0  0  0  0  0  0  0  0  0
    1.8223   -0.3118   -2.4402 C   0  0  0  0  0  0  0  0  0  0  0  0
    0.7031    0.1164   -1.7427 C   0  0  0  0  0  0  0  0  0  0  0  0
    0.5977   -0.2120   -0.3924 C   0  0  0  0  0  0  0  0  0  0  0  0
   -0.5964    0.2269    0.3894 C   0  0  0  0  0  0  0  0  0  0  0  0
   -0.7198   -0.1479    1.7264 C   0  0  0  0  0  0  0  0  0  0  0  0
   -1.8395    0.2721    2.4281 C   0  0  0  0  0  0  0  0  0  0  0  0
   -2.7959    1.0467    1.7835 C   0  0  0  0  0  0  0  0  0  0  0  0
   -2.5779    1.3690    0.4444 C   0  0  0  0  0  0  0  0  0  0  0  0
   -1.5110    0.9754   -0.2439 N   0  0  0  0  0  0  0  0  0  0  0  0
    1.5343   -0.9193    0.2579 N   0  0  0  0  0  0  0  0  0  0  0  0
    2.6026   -1.3165   -0.4240 C   0  0  0  0  0  0  0  0  0  0  0  0
    3.6880   -1.3873   -2.2809 H   0  0  0  0  0  0  0  0  0  0  0  0
    1.9281   -0.0757   -3.4872 H   0  0  0  0  0  0  0  0  0  0  0  0
   -0.0768    0.6840   -2.2266 H   0  0  0  0  0  0  0  0  0  0  0  0
    0.0437   -0.7497    2.1931 H   0  0  0  0  0  0  0  0  0  0  0  0
   -1.9625   -0.0005    3.4649 H   0  0  0  0  0  0  0  0  0  0  0  0
   -3.6828    1.3852    2.2907 H   0  0  0  0  0  0  0  0  0  0  0  0
   -3.2961    1.9719   -0.0963 H   0  0  0  0  0  0  0  0  0  0  0  0
    3.3367   -1.8854    0.1328 H   0  0  0  0  0  0  0  0  0  0  0  0
  1  2  2  0
  2  3  1  0
  3  4  2  0
  4  5  1  0
  5  6  2  0
  6  7  1  0
  7  8  2  0
  8  9  1  0
  9 10  2  0
  4 11  1  0
 11 12  2  0
 12  1  1  0
 10  5  1  0
  1 13  1  0
  2 14  1  0
  3 15  1  0
  6 16  1  0
  7 17  1  0
  8 18  1  0
  9 19  1  0
 12 20  1  0
M  END
$$$$

     RDKit          3D

 20 21  0  0  0  0  0  0  0  0999 V2000
    3.1805   -1.0375   -0.9445 C   0  0  0  0  0  0  0  0  0  0  0  0
    3.0508   -0.1584    0.1238 C   0  0  0  0  0  0  0  0  0  0  0  0
    1.7865    0.2577    0.5116 C   0  0  0  0  0  0  0  0  0  0  0  0
    0.6864   -0.2174   -0.1993 C   0  0  0  0  0  0  0  0  0  0  0  0
   -0.6874    0.2172    0.1919 C   0  0  0  0  0  0  0  0  0  0  0  0
   -1.7838   -0.1968   -0.5608 C   0  0  0  0  0  0  0  0  0  0  0  0
   -3.0467    0.2162   -0.1645 C   0  0  0  0  0  0  0  0  0  0  0  0
   -3.1805    1.0213    0.9607 C   0  0  0  0  0  0  0  0  0  0  0  0
   -2.0202    1.3823    1.6434 C   0  0  0  0  0  0  0  0  0  0  0  0
   -0.8028    0.9968    1.2791 N   0  0  0  0  0  0  0  0  0  0  0  0
    0.7974   -1.0630   -1.2365 N   0  0  0  0  0  0  0  0  0  0  0  0
    2.0161   -1.4615   -1.5845 C   0  0  0  0  0  0  0  0  0  0  0  0
    4.1437   -1.3840   -1.2772 H   0  0  0  0  0  0  0  0  0  0  0  0
    3.9213    0.1960    0.6533 H   0  0  0  0  0  0  0  0  0  0  0  0
    1.6493    0.9365    1.3390 H   0  0  0  0  0  0  0  0  0  0  0  0
   -1.6461   -0.8238   -1.4273 H   0  0  0  0  0  0  0  0  0  0  0  0
   -3.9150   -0.0924   -0.7240 H   0  0  0  0  0  0  0  0  0  0  0  0
   -4.1431    1.3603    1.3035 H   0  0  0  0  0  0  0  0  0  0  0  0
   -2.0792    2.0031    2.5299 H   0  0  0  0  0  0  0  0  0  0  0  0
    2.0728   -2.1526   -2.4176 H   0  0  0  0  0  0  0  0  0  0  0  0
  1  2  2  0
  2  3  1  0
  3  4  2  0
  4  5  1  0
  5  6  2  0
  6  7  1  0
  7  8  2  0
  8  9  1  0
  9 10  2  0
  4 11  1  0
 11 12  2  0
 12  1  1  0
 10  5  1  0
  1 13  1  0
  2 14  1  0
  3 15  1  0
  6 16  1  0
  7 17  1  0
  8 18  1  0
  9 19  1  0
 12 20  1  0
M  END
$$$$
