
     RDKit          3D

 26 27  0  0  0  0  0  0  0  0999 V2000
    3.3379    2.4216   -2.2027 O   0  0  0  0  0  0  0  0  0  0  0  0
    2.8230    3.0295   -1.2760 C   0  0  0  0  0  0  0  0  0  0  0  0
    3.1966    4.2762   -0.9363 O   0  0  0  0  0  0  0  0  0  0  0  0
    1.7349    2.4800   -0.4257 C   0  0  0  0  0  0  0  0  0  0  0  0
    1.1570    3.2070    0.6088 C   0  0  0  0  0  0  0  0  0  0  0  0
    0.1500    2.6084    1.3474 C   0  0  0  0  0  0  0  0  0  0  0  0
   -0.3021    1.3767    1.1227 N   0  0  0  0  0  0  0  0  0  0  0  0
    0.2617    0.6821    0.1242 C   0  0  0  0  0  0  0  0  0  0  0  0
   -0.2437   -0.6948   -0.1131 C   0  0  0  0  0  0  0  0  0  0  0  0
   -1.2817   -1.1876    0.6447 C   0  0  0  0  0  0  0  0  0  0  0  0
   -1.7458   -2.4765    0.4094 C   0  0  0  0  0  0  0  0  0  0  0  0
   -2.8698   -2.9979    1.2294 C   0  0  0  0  0  0  0  0  0  0  0  0
   -3.4393   -2.3434    2.0874 O   0  0  0  0  0  0  0  0  0  0  0  0
   -3.2110   -4.2665    0.9432 O   0  0  0  0  0  0  0  0  0  0  0  0
   -1.1349   -3.2253   -0.5881 C   0  0  0  0  0  0  0  0  0  0  0  0
   -0.0980   -2.6429   -1.2981 C   0  0  0  0  0  0  0  0  0  0  0  0
    0.3503   -1.4085   -1.0798 N   0  0  0  0  0  0  0  0  0  0  0  0
    1.2686    1.1923   -0.6643 C   0  0  0  0  0  0  0  0  0  0  0  0
    3.9189    4.5645   -1.5230 H   0  0  0  0  0  0  0  0  0  0  0  0
    1.4798    4.2213    0.8408 H   0  0  0  0  0  0  0  0  0  0  0  0
   -0.3257    3.1379    2.1679 H   0  0  0  0  0  0  0  0  0  0  0  0
   -1.7322   -0.5784    1.4167 H   0  0  0  0  0  0  0  0  0  0  0  0
   -3.9382   -4.5385    1.5307 H   0  0  0  0  0  0  0  0  0  0  0  0
   -1.4557   -4.2413   -0.8165 H   0  0  0  0  0  0  0  0  0  0  0  0
    0.4059   -3.1921   -2.0880 H   0  0  0  0  0  0  0  0  0  0  0  0
    1.6935    0.5963   -1.4614 H   0  0  0  0  0  0  0  0  0  0  0  0
  1  2  2  0
  2  3  1  0
  2  4  1  0
  4  5  2  0
  5  6  1  0
  6  7  2  0
  7  8  1  0
  8  9  1  0
  9 10  2  0
 10 11  1  0
 11 12  1  0
 12 13  2  0
 12 14  1  0
 11 15  2  0
 15 16  1  0
 16 17  2  0
  8 18  2  0
 18  4  1  0
 17  9  1  0
  3 19  1  0
  5 20  1  0
  6 21  1  0
 10 22  1  0
 14 23  1  0
 15 24  1  0
 16 25  1  0
 18 26  1  0
M  END
$$$$

     RDKit          3D

 26 27  0  0  0  0  0  0  0  0999 V2000
   -3.8338   -1.0092    2.4701 O   0  0  0  0  0  0  0  0  0  0  0  0
   -3.9337    0.0220    1.8206 C   0  0  0  0  0  0  0  0  0  0  0  0
   -5.0504    0.7712    1.8177 O   0  0  0  0  0  0  0  0  0  0  0  0
   -2.8468    0.5579    0.9598 C   0  0  0  0  0  0  0  0  0  0  0  0
   -2.9845    1.7372    0.2360 C   0  0  0  0  0  0  0  0  0  0  0  0
   -1.9177    2.1522   -0.5447 C   0  0  0  0  0  0  0  0  0  0  0  0
   -0.7710    1.4877   -0.6396 N   0  0  0  0  0  0  0  0  0  0  0  0
   -0.6435    0.3543    0.0651 C   0  0  0  0  0  0  0  0  0  0  0  0
    0.6476   -0.3697   -0.0485 C   0  0  0  0  0  0  0  0  0  0  0  0
    1.6524    0.1398   -0.8390 C   0  0  0  0  0  0  0  0  0  0  0  0
    2.8526   -0.5531   -0.9447 C   0  0  0  0  0  0  0  0  0  0  0  0
    3.9293    0.0003   -1.8078 C   0  0  0  0  0  0  0  0  0  0  0  0
    3.8226    1.0419   -2.4373 O   0  0  0  0  0  0  0  0  0  0  0  0
    5.0463   -0.7476   -1.8330 O   0  0  0  0  0  0  0  0  0  0  0  0
    2.9931   -1.7430   -0.2405 C   0  0  0  0  0  0  0  0  0  0  0  0
    1.9262   -2.1720    0.5339 C   0  0  0  0  0  0  0  0  0  0  0  0
    0.7759   -1.5116    0.6406 N   0  0  0  0  0  0  0  0  0  0  0  0
   -1.6477   -0.1410    0.8640 C   0  0  0  0  0  0  0  0  0  0  0  0
   -5.7241    0.3425    2.3764 H   0  0  0  0  0  0  0  0  0  0  0  0
   -3.8989    2.3292    0.2777 H   0  0  0  0  0  0  0  0  0  0  0  0
   -1.9806    3.0662   -1.1276 H   0  0  0  0  0  0  0  0  0  0  0  0
    1.5063    1.0658   -1.3820 H   0  0  0  0  0  0  0  0  0  0  0  0
    5.6858   -0.3308   -2.4415 H   0  0  0  0  0  0  0  0  0  0  0  0
    3.9118   -2.3276   -0.2860 H   0  0  0  0  0  0  0  0  0  0  0  0
    1.9897   -3.0939    1.1049 H   0  0  0  0  0  0  0  0  0  0  0  0
   -1.5067   -1.0685    1.4054 H   0  0  0  0  0  0  0  0  0  0  0  0
  1  2  2  0
  2  3  1  0
  2  4  1  0
  4  5  2  0
  5  6  1  0
  6  7  2  0
  7  8  1  0
  8  9  1  0
  9 10  2  0
 10 11  1  0
 11 12  1  0
 12 13  2  0
 12 14  1  0
 11 15  2  0
 15 16  1  0
 16 17  2  0
  8 18  2  0
 18  4  1  0
 17  9  1  0
  3 19  1  0
  5 20  1  0
  6 21  1  0
 10 22  1  0
 14 23  1  0
 15 24  1  0
 16 25  1  0
 18 26  1  0
M  END
$$$$

     RDKit          3D

 26 27  0  0  0  0  0  0  0  0999 V2000
    3.2456    3.1428    1.1417 O   0  0  0  0  0  0  0  0  0  0  0  0
    3.4756    2.0318    1.5901 C   0  0  0  0  0  0  0  0  0  0  0  0
    4.5589    1.7672    2.3410 O   0  0  0  0  0  0  0  0  0  0  0  0
    2.5977    0.8538    1.3658 C   0  0  0  0  0  0  0  0  0  0  0  0
    2.8876   -0.4016    1.8845 C   0  0  0  0  0  0  0  0  0  0  0  0
    2.0105   -1.4386    1.6115 C   0  0  0  0  0  0  0  0  0  0  0  0
    0.9045   -1.3015    0.8833 N   0  0  0  0  0  0  0  0  0  0  0  0
    0.6325   -0.0862    0.3881 C   0  0  0  0  0  0  0  0  0  0  0  0
   -0.6048    0.0590   -0.4223 C   0  0  0  0  0  0  0  0  0  0  0  0
   -1.4610   -1.0067   -0.5831 C   0  0  0  0  0  0  0  0  0  0  0  0
   -2.6127   -0.8491   -1.3454 C   0  0  0  0  0  0  0  0  0  0  0  0
   -3.5338   -2.0018   -1.5173 C   0  0  0  0  0  0  0  0  0  0  0  0
   -3.3382   -3.1027   -1.0262 O   0  0  0  0  0  0  0  0  0  0  0  0
   -4.6113   -1.7304   -2.2742 O   0  0  0  0  0  0  0  0  0  0  0  0
   -2.8555    0.3901   -1.9232 C   0  0  0  0  0  0  0  0  0  0  0  0
   -1.9357    1.4024   -1.7057 C   0  0  0  0  0  0  0  0  0  0  0  0
   -0.8356    1.2590   -0.9734 N   0  0  0  0  0  0  0  0  0  0  0  0
    1.4452    1.0034    0.6034 C   0  0  0  0  0  0  0  0  0  0  0  0
    5.0783    2.5918    2.4376 H   0  0  0  0  0  0  0  0  0  0  0  0
    3.7763   -0.5761    2.4901 H   0  0  0  0  0  0  0  0  0  0  0  0
    2.2019   -2.4372    1.9924 H   0  0  0  0  0  0  0  0  0  0  0  0
   -1.2376   -1.9602   -0.1232 H   0  0  0  0  0  0  0  0  0  0  0  0
   -5.1525   -2.5367   -2.3465 H   0  0  0  0  0  0  0  0  0  0  0  0
   -3.7399    0.5710   -2.5344 H   0  0  0  0  0  0  0  0  0  0  0  0
   -2.0864    2.3889   -2.1360 H   0  0  0  0  0  0  0  0  0  0  0  0
    1.1905    1.9676    0.1813 H   0  0  0  0  0  0  0  0  0  0  0  0
  1  2  2  0
  2  3  1  0
  2  4  1  0
  4  5  2  0
  5  6  1  0
  6  7  2  0
  7  8  1  0
  8  9  1  0
  9 10  2  0
 10 11  1  0
 11 12  1  0
 12 13  2  0
 12 14  1  0
 11 15  2  0
 15 16  1  0
 16 17  2  0
  8 18  2  0
 18  4  1  0
 17  9  1  0
  3 19  1  0
  5 20  1  0
  6 21  1  0
 10 22  1  0
 14 23  1  0
 15 24  1  0
 16 25  1  0
 18 26  1  0
M  END
$$$$

     RDKit          3D

 26 27  0  0  0  0  0  0  0  0999 V2000
    3.3189    0.2607   -3.2489 O   0  0  0  0  0  0  0  0  0  0  0  0
    2.4437   -0.5445   -3.5277 C   0  0  0  0  0  0  0  0  0  0  0  0
    2.4617   -1.2741   -4.6580 O   0  0  0  0  0  0  0  0  0  0  0  0
    1.2677   -0.8084   -2.6597 C   0  0  0  0  0  0  0  0  0  0  0  0
    0.2719   -1.7131   -3.0080 C   0  0  0  0  0  0  0  0  0  0  0  0
   -0.7829   -1.8907   -2.1278 C   0  0  0  0  0  0  0  0  0  0  0  0
   -0.8980   -1.2399   -0.9716 N   0  0  0  0  0  0  0  0  0  0  0  0
    0.0656   -0.3701   -0.6437 C   0  0  0  0  0  0  0  0  0  0  0  0
   -0.0704    0.3505    0.6485 C   0  0  0  0  0  0  0  0  0  0  0  0
   -1.1672    0.1334    1.4512 C   0  0  0  0  0  0  0  0  0  0  0  0
   -1.2759    0.8200    2.6555 C   0  0  0  0  0  0  0  0  0  0  0  0
   -2.4628    0.5840    3.5185 C   0  0  0  0  0  0  0  0  0  0  0  0
   -3.3736   -0.1730    3.2204 O   0  0  0  0  0  0  0  0  0  0  0  0
   -2.4551    1.2869    4.6643 O   0  0  0  0  0  0  0  0  0  0  0  0
   -0.2586    1.6993    3.0074 C   0  0  0  0  0  0  0  0  0  0  0  0
    0.8072    1.8485    2.1350 C   0  0  0  0  0  0  0  0  0  0  0  0
    0.9121    1.2012    0.9788 N   0  0  0  0  0  0  0  0  0  0  0  0
    1.1539   -0.1302   -1.4510 C   0  0  0  0  0  0  0  0  0  0  0  0
    3.2522   -1.0401   -5.1727 H   0  0  0  0  0  0  0  0  0  0  0  0
    0.3126   -2.2722   -3.9430 H   0  0  0  0  0  0  0  0  0  0  0  0
   -1.5827   -2.5884   -2.3539 H   0  0  0  0  0  0  0  0  0  0  0  0
   -1.9370   -0.5651    1.1465 H   0  0  0  0  0  0  0  0  0  0  0  0
   -3.2544    1.0643    5.1759 H   0  0  0  0  0  0  0  0  0  0  0  0
   -0.2888    2.2605    3.9409 H   0  0  0  0  0  0  0  0  0  0  0  0
    1.6255    2.5223    2.3703 H   0  0  0  0  0  0  0  0  0  0  0  0
    1.9145    0.5781   -1.1471 H   0  0  0  0  0  0  0  0  0  0  0  0
  1  2  2  0
  2  3  1  0
  2  4  1  0
  4  5  2  0
  5  6  1  0
  6  7  2  0
  7  8  1  0
  8  9  1  0
  9 10  2  0
 10 11  1  0
 11 12  1  0
 12 13  2  0
 12 14  1  0
 11 15  2  0
 15 16  1  0
 16 17  2  0
  8 18  2  0
 18  4  1  0
 17  9  1  0
  3 19  1  0
  5 20  1  0
  6 21  1  0
 10 22  1  0
 14 23  1  0
 15 24  1  0
 16 25  1  0
 18 26  1  0
M  END
$$$$

     RDKit          3D

 26 27  0  0  0  0  0  0  0  0999 V2000
    0.9475   -1.3120   -3.7582 O   0  0  0  0  0  0  0  0  0  0  0  0
   -0.0436   -1.9392   -3.4297 C   0  0  0  0  0  0  0  0  0  0  0  0
   -0.5807   -2.9026   -4.1916 O   0  0  0  0  0  0  0  0  0  0  0  0
   -0.7826   -1.7105   -2.1598 C   0  0  0  0  0  0  0  0  0  0  0  0
   -1.9174   -2.4277   -1.8104 C   0  0  0  0  0  0  0  0  0  0  0  0
   -2.5259   -2.1334   -0.5981 C   0  0  0  0  0  0  0  0  0  0  0  0
   -2.0723   -1.2038    0.2485 N   0  0  0  0  0  0  0  0  0  0  0  0
   -0.9813   -0.5183   -0.0955 C   0  0  0  0  0  0  0  0  0  0  0  0
   -0.4912    0.4984    0.8661 C   0  0  0  0  0  0  0  0  0  0  0  0
    0.8611    0.8099    0.9436 C   0  0  0  0  0  0  0  0  0  0  0  0
    1.2923    1.7387    1.8708 C   0  0  0  0  0  0  0  0  0  0  0  0
    2.7493    2.0321    1.9555 C   0  0  0  0  0  0  0  0  0  0  0  0
    3.5904    1.4823    1.2702 O   0  0  0  0  0  0  0  0  0  0  0  0
    3.0555    2.9556    2.8756 O   0  0  0  0  0  0  0  0  0  0  0  0
    0.3528    2.3500    2.6875 C   0  0  0  0  0  0  0  0  0  0  0  0
   -0.9792    1.9915    2.5316 C   0  0  0  0  0  0  0  0  0  0  0  0
   -1.4002    1.0821    1.6444 N   0  0  0  0  0  0  0  0  0  0  0  0
   -0.3137   -0.7405   -1.2921 C   0  0  0  0  0  0  0  0  0  0  0  0
   -0.0618   -2.9867   -5.0085 H   0  0  0  0  0  0  0  0  0  0  0  0
   -2.3325   -3.2004   -2.4585 H   0  0  0  0  0  0  0  0  0  0  0  0
   -3.4152   -2.6722   -0.2894 H   0  0  0  0  0  0  0  0  0  0  0  0
    1.5805    0.3230    0.2956 H   0  0  0  0  0  0  0  0  0  0  0  0
    4.0218    3.0917    2.8836 H   0  0  0  0  0  0  0  0  0  0  0  0
    0.6396    3.0893    3.4365 H   0  0  0  0  0  0  0  0  0  0  0  0
   -1.7426    2.4491    3.1498 H   0  0  0  0  0  0  0  0  0  0  0  0
    0.5495   -0.1464   -1.5675 H   0  0  0  0  0  0  0  0  0  0  0  0
  1  2  2  0
  2  3  1  0
  2  4  1  0
  4  5  2  0
  5  6  1  0
  6  7  2  0
  7  8  1  0
  8  9  1  0
  9 10  2  0
 10 11  1  0
 11 12  1  0
 12 13  2  0
 12 14  1  0
 11 15  2  0
 15 16  1  0
 16 17  2  0
  8 18  2  0
 18  4  1  0
 17  9  1  0
  3 19  1  0
  5 20  1  0
  6 21  1  0
 10 22  1  0
 14 23  1  0
 15 24  1  0
 16 25  1  0
 18 26  1  0
M  END
$$$$

     RDKit          3D

 26 27  0  0  0  0  0  0  0  0999 V2000
   -0.3898    4.6415    0.2915 O   0  0  0  0  0  0  0  0  0  0  0  0
    0.7604    4.2460    0.3992 C   0  0  0  0  0  0  0  0  0  0  0  0
    1.8003    5.0824    0.5706 O   0  0  0  0  0  0  0  0  0  0  0  0
    1.1453    2.8113    0.3539 C   0  0  0  0  0  0  0  0  0  0  0  0
    2.4649    2.3925    0.4755 C   0  0  0  0  0  0  0  0  0  0  0  0
    2.7272    1.0341    0.4032 C   0  0  0  0  0  0  0  0  0  0  0  0
    1.7903    0.1079    0.2218 N   0  0  0  0  0  0  0  0  0  0  0  0
    0.5192    0.5193    0.1162 C   0  0  0  0  0  0  0  0  0  0  0  0
   -0.5214   -0.5241   -0.0776 C   0  0  0  0  0  0  0  0  0  0  0  0
   -0.1603   -1.8472   -0.1793 C   0  0  0  0  0  0  0  0  0  0  0  0
   -1.1465   -2.8106   -0.3596 C   0  0  0  0  0  0  0  0  0  0  0  0
   -0.7545   -4.2394   -0.4728 C   0  0  0  0  0  0  0  0  0  0  0  0
    0.4044   -4.6256   -0.4514 O   0  0  0  0  0  0  0  0  0  0  0  0
   -1.7941   -5.0802   -0.6177 O   0  0  0  0  0  0  0  0  0  0  0  0
   -2.4708   -2.3952   -0.4282 C   0  0  0  0  0  0  0  0  0  0  0  0
   -2.7361   -1.0400   -0.3165 C   0  0  0  0  0  0  0  0  0  0  0  0
   -1.7950   -0.1145   -0.1474 N   0  0  0  0  0  0  0  0  0  0  0  0
    0.1600    1.8455    0.1810 C   0  0  0  0  0  0  0  0  0  0  0  0
    1.4720    5.9986    0.5689 H   0  0  0  0  0  0  0  0  0  0  0  0
    3.2766    3.1042    0.6248 H   0  0  0  0  0  0  0  0  0  0  0  0
    3.7433    0.6630    0.4911 H   0  0  0  0  0  0  0  0  0  0  0  0
    0.8826   -2.1315   -0.1238 H   0  0  0  0  0  0  0  0  0  0  0  0
   -1.4575   -5.9915   -0.6854 H   0  0  0  0  0  0  0  0  0  0  0  0
   -3.2837   -3.1069   -0.5701 H   0  0  0  0  0  0  0  0  0  0  0  0
   -3.7554   -0.6698   -0.3613 H   0  0  0  0  0  0  0  0  0  0  0  0
   -0.8814    2.1301    0.0935 H   0  0  0  0  0  0  0  0  0  0  0  0
  1  2  2  0
  2  3  1  0
  2  4  1  0
  4  5  2  0
  5  6  1  0
  6  7  2  0
  7  8  1  0
  8  9  1  0
  9 10  2  0
 10 11  1  0
 11 12  1  0
 12 13  2  0
 12 14  1  0
 11 15  2  0
 15 16  1  0
 16 17  2  0
  8 18  2  0
 18  4  1  0
 17  9  1  0
  3 19  1  0
  5 20  1  0
  6 21  1  0
 10 22  1  0
 14 23  1  0
 15 24  1  0
 16 25  1  0
 18 26  1  0
M  END
$$$$

     RDKit          3D

 26 27  0  0  0  0  0  0  0  0999 V2000
    4.0607    0.0414    2.3114 O   0  0  0  0  0  0  0  0  0  0  0  0
    3.7629    1.1266    1.8341 C   0  0  0  0  0  0  0  0  0  0  0  0
    4.5462    2.2114    1.9643 O   0  0  0  0  0  0  0  0  0  0  0  0
    2.5202    1.3723    1.0559 C   0  0  0  0  0  0  0  0  0  0  0  0
    2.1991    2.6226    0.5408 C   0  0  0  0  0  0  0  0  0  0  0  0
    1.0174    2.7516   -0.1713 C   0  0  0  0  0  0  0  0  0  0  0  0
    0.1702    1.7493   -0.3866 N   0  0  0  0  0  0  0  0  0  0  0  0
    0.4852    0.5471    0.1140 C   0  0  0  0  0  0  0  0  0  0  0  0
   -0.4699   -0.5617   -0.1401 C   0  0  0  0  0  0  0  0  0  0  0  0
   -1.6435   -0.3192   -0.8176 C   0  0  0  0  0  0  0  0  0  0  0  0
   -2.5247   -1.3694   -1.0463 C   0  0  0  0  0  0  0  0  0  0  0  0
   -3.7910   -1.1066   -1.7772 C   0  0  0  0  0  0  0  0  0  0  0  0
   -4.1142   -0.0070   -2.2011 O   0  0  0  0  0  0  0  0  0  0  0  0
   -4.5629   -2.1958   -1.9325 O   0  0  0  0  0  0  0  0  0  0  0  0
   -2.1825   -2.6328   -0.5768 C   0  0  0  0  0  0  0  0  0  0  0  0
   -0.9804   -2.7768    0.0957 C   0  0  0  0  0  0  0  0  0  0  0  0
   -0.1327   -1.7760    0.3139 N   0  0  0  0  0  0  0  0  0  0  0  0
    1.6395    0.3197    0.8299 C   0  0  0  0  0  0  0  0  0  0  0  0
    5.3207    1.9784    2.5059 H   0  0  0  0  0  0  0  0  0  0  0  0
    2.8481    3.4847    0.6895 H   0  0  0  0  0  0  0  0  0  0  0  0
    0.7294    3.7078   -0.5964 H   0  0  0  0  0  0  0  0  0  0  0  0
   -1.8787    0.6799   -1.1630 H   0  0  0  0  0  0  0  0  0  0  0  0
   -5.3720   -1.9413   -2.4111 H   0  0  0  0  0  0  0  0  0  0  0  0
   -2.8321   -3.4935   -0.7296 H   0  0  0  0  0  0  0  0  0  0  0  0
   -0.6724   -3.7444    0.4784 H   0  0  0  0  0  0  0  0  0  0  0  0
    1.8575   -0.6685    1.2158 H   0  0  0  0  0  0  0  0  0  0  0  0
  1  2  2  0
  2  3  1  0
  2  4  1  0
  4  5  2  0
  5  6  1  0
  6  7  2  0
  7  8  1  0
  8  9  1  0
  9 10  2  0
 10 11  1  0
 11 12  1  0
 12 13  2  0
 12 14  1  0
 11 15  2  0
 15 16  1  0
 16 17  2  0
  8 18  2  0
 18  4  1  0
 17  9  1  0
  3 19  1  0
  5 20  1  0
  6 21  1  0
 10 22  1  0
 14 23  1  0
 15 24  1  0
 16 25  1  0
 18 26  1  0
M  END
$$$$

     RDKit          3D

 26 27  0  0  0  0  0  0  0  0999 V2000
   -4.1560   -1.7876    1.1780 O   0  0  0  0  0  0  0  0  0  0  0  0
   -3.4104   -2.5972    0.6487 C   0  0  0  0  0  0  0  0  0  0  0  0
   -3.7679   -3.8773    0.4445 O   0  0  0  0  0  0  0  0  0  0  0  0
   -2.0347   -2.2743    0.1879 C   0  0  0  0  0  0  0  0  0  0  0  0
   -1.2069   -3.2230   -0.3998 C   0  0  0  0  0  0  0  0  0  0  0  0
    0.0591   -2.8283   -0.8009 C   0  0  0  0  0  0  0  0  0  0  0  0
    0.5297   -1.5939   -0.6517 N   0  0  0  0  0  0  0  0  0  0  0  0
   -0.2713   -0.6844   -0.0806 C   0  0  0  0  0  0  0  0  0  0  0  0
    0.2748    0.6858    0.0904 C   0  0  0  0  0  0  0  0  0  0  0  0
    1.5363    0.9924   -0.3699 C   0  0  0  0  0  0  0  0  0  0  0  0
    2.0266    2.2825   -0.2017 C   0  0  0  0  0  0  0  0  0  0  0  0
    3.3901    2.6079   -0.6966 C   0  0  0  0  0  0  0  0  0  0  0  0
    4.1177    1.7993   -1.2523 O   0  0  0  0  0  0  0  0  0  0  0  0
    3.7590    3.8820   -0.4852 O   0  0  0  0  0  0  0  0  0  0  0  0
    1.2184    3.2176    0.4330 C   0  0  0  0  0  0  0  0  0  0  0  0
   -0.0349    2.8141    0.8642 C   0  0  0  0  0  0  0  0  0  0  0  0
   -0.5093    1.5824    0.7035 N   0  0  0  0  0  0  0  0  0  0  0  0
   -1.5484   -0.9810    0.3430 C   0  0  0  0  0  0  0  0  0  0  0  0
   -4.6780   -4.0084    0.7647 H   0  0  0  0  0  0  0  0  0  0  0  0
   -1.5338   -4.2524   -0.5440 H   0  0  0  0  0  0  0  0  0  0  0  0
    0.7399   -3.5348   -1.2640 H   0  0  0  0  0  0  0  0  0  0  0  0
    2.1415    0.2367   -0.8539 H   0  0  0  0  0  0  0  0  0  0  0  0
    4.6686    4.0061   -0.8200 H   0  0  0  0  0  0  0  0  0  0  0  0
    1.5509    4.2423    0.5919 H   0  0  0  0  0  0  0  0  0  0  0  0
   -0.6978    3.5080    1.3702 H   0  0  0  0  0  0  0  0  0  0  0  0
   -2.1633   -0.2142    0.8005 H   0  0  0  0  0  0  0  0  0  0  0  0
  1  2  2  0
  2  3  1  0
  2  4  1  0
  4  5  2  0
  5  6  1  0
  6  7  2  0
  7  8  1  0
  8  9  1  0
  9 10  2  0
 10 11  1  0
 11 12  1  0
 12 13  2  0
 12 14  1  0
 11 15  2  0
 15 16  1  0
 16 17  2  0
  8 18  2  0
 18  4  1  0
 17  9  1  0
  3 19  1  0
  5 20  1  0
  6 21  1  0
 10 22  1  0
 14 23  1  0
 15 24  1  0
 16 25  1  0
 18 26  1  0
M  END
$$$$

     RDKit          3D

 26 27  0  0  0  0  0  0  0  0999 V2000
   -0.2948   -4.4306   -1.4300 O   0  0  0  0  0  0  0  0  0  0  0  0
    0.8446   -4.0907   -1.1540 C   0  0  0  0  0  0  0  0  0  0  0  0
    1.8891   -4.9318   -1.2500 O   0  0  0  0  0  0  0  0  0  0  0  0
    1.2040   -2.7285   -0.6785 C   0  0  0  0  0  0  0  0  0  0  0  0
    2.5092   -2.3628   -0.3747 C   0  0  0  0  0  0  0  0  0  0  0  0
    2.7436   -1.0675    0.0571 C   0  0  0  0  0  0  0  0  0  0  0  0
    1.7892   -0.1505    0.1984 N   0  0  0  0  0  0  0  0  0  0  0  0
    0.5315   -0.5134   -0.0886 C   0  0  0  0  0  0  0  0  0  0  0  0
   -0.5262    0.5159    0.0813 C   0  0  0  0  0  0  0  0  0  0  0  0
   -0.1951    1.7788    0.5168 C   0  0  0  0  0  0  0  0  0  0  0  0
   -1.1989    2.7278    0.6785 C   0  0  0  0  0  0  0  0  0  0  0  0
   -0.8461    4.0912    1.1498 C   0  0  0  0  0  0  0  0  0  0  0  0
    0.2894    4.4378    1.4348 O   0  0  0  0  0  0  0  0  0  0  0  0
   -1.8989    4.9230    1.2424 O   0  0  0  0  0  0  0  0  0  0  0  0
   -2.5076    2.3613    0.3878 C   0  0  0  0  0  0  0  0  0  0  0  0
   -2.7408    1.0698   -0.0531 C   0  0  0  0  0  0  0  0  0  0  0  0
   -1.7839    0.1572   -0.2040 N   0  0  0  0  0  0  0  0  0  0  0  0
    0.2017   -1.7758   -0.5283 C   0  0  0  0  0  0  0  0  0  0  0  0
    1.5656   -5.8014   -1.5542 H   0  0  0  0  0  0  0  0  0  0  0  0
    3.3351   -3.0679   -0.4705 H   0  0  0  0  0  0  0  0  0  0  0  0
    3.7482   -0.7398    0.3024 H   0  0  0  0  0  0  0  0  0  0  0  0
    0.8371    2.0240    0.7343 H   0  0  0  0  0  0  0  0  0  0  0  0
   -1.5855    5.7908    1.5550 H   0  0  0  0  0  0  0  0  0  0  0  0
   -3.3343    3.0631    0.4984 H   0  0  0  0  0  0  0  0  0  0  0  0
   -3.7463    0.7428   -0.2984 H   0  0  0  0  0  0  0  0  0  0  0  0
   -0.8299   -2.0228   -0.7525 H   0  0  0  0  0  0  0  0  0  0  0  0
  1  2  2  0
  2  3  1  0
  2  4  1  0
  4  5  2  0
  5  6  1  0
  6  7  2  0
  7  8  1  0
  8  9  1  0
  9 10  2  0
 10 11  1  0
 11 12  1  0
 12 13  2  0
 12 14  1  0
 11 15  2  0
 15 16  1  0
 16 17  2  0
  8 18  2  0
 18  4  1  0
 17  9  1  0
  3 19  1  0
  5 20  1  0
  6 21  1  0
 10 22  1  0
 14 23  1  0
 15 24  1  0
 16 25  1  0
 18 26  1  0
M  END
$$$$

     RDKit          3D

 26 27  0  0  0  0  0  0  0  0999 V2000
   -3.3716   -1.1523   -3.0169 O   0  0  0  0  0  0  0  0  0  0  0  0
   -2.8932   -0.0477   -3.2260 C   0  0  0  0  0  0  0  0  0  0  0  0
   -3.3244    0.7467   -4.2216 O   0  0  0  0  0  0  0  0  0  0  0  0
   -1.7950    0.5408   -2.4148 C   0  0  0  0  0  0  0  0  0  0  0  0
   -1.2616    1.7957   -2.6832 C   0  0  0  0  0  0  0  0  0  0  0  0
   -0.2373    2.2555   -1.8711 C   0  0  0  0  0  0  0  0  0  0  0  0
    0.2627    1.5682   -0.8478 N   0  0  0  0  0  0  0  0  0  0  0  0
   -0.2607    0.3615   -0.5921 C   0  0  0  0  0  0  0  0  0  0  0  0
    0.2963   -0.3896    0.5619 C   0  0  0  0  0  0  0  0  0  0  0  0
    1.2883    0.1720    1.3333 C   0  0  0  0  0  0  0  0  0  0  0  0
    1.7911   -0.5371    2.4172 C   0  0  0  0  0  0  0  0  0  0  0  0
    2.8592    0.0739    3.2506 C   0  0  0  0  0  0  0  0  0  0  0  0
    3.3396    1.1757    3.0346 O   0  0  0  0  0  0  0  0  0  0  0  0
    3.2642   -0.7040    4.2693 O   0  0  0  0  0  0  0  0  0  0  0  0
    1.2688   -1.7986    2.6800 C   0  0  0  0  0  0  0  0  0  0  0  0
    0.2777   -2.2829    1.8423 C   0  0  0  0  0  0  0  0  0  0  0  0
   -0.2084   -1.6066    0.8054 N   0  0  0  0  0  0  0  0  0  0  0  0
   -1.2753   -0.1827   -1.3462 C   0  0  0  0  0  0  0  0  0  0  0  0
   -4.0271    0.2839   -4.7103 H   0  0  0  0  0  0  0  0  0  0  0  0
   -1.6355    2.4123   -3.4997 H   0  0  0  0  0  0  0  0  0  0  0  0
    0.2137    3.2274   -2.0449 H   0  0  0  0  0  0  0  0  0  0  0  0
    1.6744    1.1540    1.0927 H   0  0  0  0  0  0  0  0  0  0  0  0
    3.9495   -0.2368    4.7736 H   0  0  0  0  0  0  0  0  0  0  0  0
    1.6222   -2.3982    3.5175 H   0  0  0  0  0  0  0  0  0  0  0  0
   -0.1541   -3.2660    2.0044 H   0  0  0  0  0  0  0  0  0  0  0  0
   -1.6637   -1.1648   -1.1081 H   0  0  0  0  0  0  0  0  0  0  0  0
  1  2  2  0
  2  3  1  0
  2  4  1  0
  4  5  2  0
  5  6  1  0
  6  7  2  0
  7  8  1  0
  8  9  1  0
  9 10  2  0
 10 11  1  0
 11 12  1  0
 12 13  2  0
 12 14  1  0
 11 15  2  0
 15 16  1  0
 16 17  2  0
  8 18  2  0
 18  4  1  0
 17  9  1  0
  3 19  1  0
  5 20  1  0
  6 21  1  0
 10 22  1  0
 14 23  1  0
 15 24  1  0
 16 25  1  0
 18 26  1  0
M  END
$$$$

     RDKit          3D

 26 27  0  0  0  0  0  0  0  0999 V2000
    1.2387    2.1648    3.9514 O   0  0  0  0  0  0  0  0  0  0  0  0
    2.0634    1.3521    3.5652 C   0  0  0  0  0  0  0  0  0  0  0  0
    3.2066    1.1133    4.2308 O   0  0  0  0  0  0  0  0  0  0  0  0
    1.9048    0.5393    2.3309 C   0  0  0  0  0  0  0  0  0  0  0  0
    2.8529   -0.3925    1.9300 C   0  0  0  0  0  0  0  0  0  0  0  0
    2.6161   -1.1075    0.7673 C   0  0  0  0  0  0  0  0  0  0  0  0
    1.5302   -0.9581    0.0145 N   0  0  0  0  0  0  0  0  0  0  0  0
    0.6205   -0.0552    0.4064 C   0  0  0  0  0  0  0  0  0  0  0  0
   -0.5890    0.0987   -0.4426 C   0  0  0  0  0  0  0  0  0  0  0  0
   -0.7820   -0.7255   -1.5287 C   0  0  0  0  0  0  0  0  0  0  0  0
   -1.9170   -0.5598   -2.3154 C   0  0  0  0  0  0  0  0  0  0  0  0
   -2.1338   -1.4484   -3.4856 C   0  0  0  0  0  0  0  0  0  0  0  0
   -1.3864   -2.3636   -3.7917 O   0  0  0  0  0  0  0  0  0  0  0  0
   -3.2478   -1.1658   -4.1847 O   0  0  0  0  0  0  0  0  0  0  0  0
   -2.8133    0.4448   -1.9736 C   0  0  0  0  0  0  0  0  0  0  0  0
   -2.5347    1.2210   -0.8612 C   0  0  0  0  0  0  0  0  0  0  0  0
   -1.4556    1.0610   -0.1002 N   0  0  0  0  0  0  0  0  0  0  0  0
    0.7714    0.7076    1.5433 C   0  0  0  0  0  0  0  0  0  0  0  0
    3.2416    1.6841    5.0175 H   0  0  0  0  0  0  0  0  0  0  0  0
    3.7622   -0.5630    2.5054 H   0  0  0  0  0  0  0  0  0  0  0  0
    3.3315   -1.8463    0.4191 H   0  0  0  0  0  0  0  0  0  0  0  0
   -0.0561   -1.4938   -1.7663 H   0  0  0  0  0  0  0  0  0  0  0  0
   -3.3140   -1.7776   -4.9355 H   0  0  0  0  0  0  0  0  0  0  0  0
   -3.7163    0.6251   -2.5562 H   0  0  0  0  0  0  0  0  0  0  0  0
   -3.2087    2.0147   -0.5603 H   0  0  0  0  0  0  0  0  0  0  0  0
    0.0150    1.4309    1.8203 H   0  0  0  0  0  0  0  0  0  0  0  0
  1  2  2  0
  2  3  1  0
  2  4  1  0
  4  5  2  0
  5  6  1  0
  6  7  2  0
  7  8  1  0
  8  9  1  0
  9 10  2  0
 10 11  1  0
 11 12  1  0
 12 13  2  0
 12 14  1  0
 11 15  2  0
 15 16  1  0
 16 17  2  0
  8 18  2  0
 18  4  1  0
 17  9  1  0
  3 19  1  0
  5 20  1  0
  6 21  1  0
 10 22  1  0
 14 23  1  0
 15 24  1  0
 16 25  1  0
 18 26  1  0
M  END
$$$$

     RDKit          3D

 26 27  0  0  0  0  0  0  0  0999 V2000
   -1.0903   -2.9784   -3.4178 O   0  0  0  0  0  0  0  0  0  0  0  0
   -0.8339   -1.8567   -3.8234 C   0  0  0  0  0  0  0  0  0  0  0  0
   -0.9084   -1.5220   -5.1228 O   0  0  0  0  0  0  0  0  0  0  0  0
   -0.4214   -0.7381   -2.9366 C   0  0  0  0  0  0  0  0  0  0  0  0
   -0.1084    0.5245   -3.4253 C   0  0  0  0  0  0  0  0  0  0  0  0
    0.2652    1.5006   -2.5174 C   0  0  0  0  0  0  0  0  0  0  0  0
    0.3300    1.3024   -1.2030 N   0  0  0  0  0  0  0  0  0  0  0  0
    0.0271    0.0836   -0.7394 C   0  0  0  0  0  0  0  0  0  0  0  0
    0.0970   -0.1203    0.7307 C   0  0  0  0  0  0  0  0  0  0  0  0
    0.3264    0.9503    1.5664 C   0  0  0  0  0  0  0  0  0  0  0  0
    0.3856    0.7427    2.9405 C   0  0  0  0  0  0  0  0  0  0  0  0
    0.6193    1.9047    3.8370 C   0  0  0  0  0  0  0  0  0  0  0  0
    0.7654    3.0475    3.4369 O   0  0  0  0  0  0  0  0  0  0  0  0
    0.6583    1.5898    5.1446 O   0  0  0  0  0  0  0  0  0  0  0  0
    0.2254   -0.5511    3.4193 C   0  0  0  0  0  0  0  0  0  0  0  0
    0.0016   -1.5632    2.5006 C   0  0  0  0  0  0  0  0  0  0  0  0
   -0.0695   -1.3683    1.1859 N   0  0  0  0  0  0  0  0  0  0  0  0
   -0.3444   -0.9540   -1.5649 C   0  0  0  0  0  0  0  0  0  0  0  0
   -1.1565   -2.3059   -5.6383 H   0  0  0  0  0  0  0  0  0  0  0  0
   -0.1513    0.7514   -4.4899 H   0  0  0  0  0  0  0  0  0  0  0  0
    0.5226    2.5000   -2.8537 H   0  0  0  0  0  0  0  0  0  0  0  0
    0.4632    1.9427    1.1547 H   0  0  0  0  0  0  0  0  0  0  0  0
    0.8294    2.4092    5.6496 H   0  0  0  0  0  0  0  0  0  0  0  0
    0.2676   -0.7759    4.4848 H   0  0  0  0  0  0  0  0  0  0  0  0
   -0.1257   -2.5899    2.8282 H   0  0  0  0  0  0  0  0  0  0  0  0
   -0.5744   -1.9255   -1.1466 H   0  0  0  0  0  0  0  0  0  0  0  0
  1  2  2  0
  2  3  1  0
  2  4  1  0
  4  5  2  0
  5  6  1  0
  6  7  2  0
  7  8  1  0
  8  9  1  0
  9 10  2  0
 10 11  1  0
 11 12  1  0
 12 13  2  0
 12 14  1  0
 11 15  2  0
 15 16  1  0
 16 17  2  0
  8 18  2  0
 18  4  1  0
 17  9  1  0
  3 19  1  0
  5 20  1  0
  6 21  1  0
 10 22  1  0
 14 23  1  0
 15 24  1  0
 16 25  1  0
 18 26  1  0
M  END
$$$$
