
     RDKit          3D

 22 24  0  0  0  0  0  0  0  0999 V2000
   -3.0707   -0.2642   -1.3004 O   0  0  0  0  0  0  0  0  0  0  0  0
   -1.8949   -0.1632   -0.9224 C   0  0  0  0  0  0  0  0  0  0  0  0
   -0.7882   -0.2248   -1.9429 C   0  0  0  0  0  0  0  0  0  0  0  0
   -1.0728   -0.3264   -3.1482 O   0  0  0  0  0  0  0  0  0  0  0  0
    0.6048   -0.1534   -1.4723 C   0  0  0  0  0  0  0  0  0  0  0  0
    1.6462   -0.2312   -2.3929 C   0  0  0  0  0  0  0  0  0  0  0  0
    2.9401   -0.1819   -1.9352 C   0  0  0  0  0  0  0  0  0  0  0  0
    3.1462   -0.0490   -0.5427 C   0  0  0  0  0  0  0  0  0  0  0  0
    2.1525    0.0404    0.3479 N   0  0  0  0  0  0  0  0  0  0  0  0
    0.9075   -0.0132   -0.1034 C   0  0  0  0  0  0  0  0  0  0  0  0
   -0.1741    0.0950    0.8925 C   0  0  0  0  0  0  0  0  0  0  0  0
    0.1840    0.2548    2.1553 N   0  0  0  0  0  0  0  0  0  0  0  0
   -0.7813    0.3658    3.0737 C   0  0  0  0  0  0  0  0  0  0  0  0
   -2.1583    0.3090    2.7669 C   0  0  0  0  0  0  0  0  0  0  0  0
   -2.5251    0.1287    1.4527 C   0  0  0  0  0  0  0  0  0  0  0  0
   -1.5334    0.0221    0.4902 C   0  0  0  0  0  0  0  0  0  0  0  0
    1.4157   -0.3324   -3.4445 H   0  0  0  0  0  0  0  0  0  0  0  0
    3.7764   -0.2419   -2.6092 H   0  0  0  0  0  0  0  0  0  0  0  0
    4.1486   -0.0029   -0.1500 H   0  0  0  0  0  0  0  0  0  0  0  0
   -0.4616    0.5004    4.0942 H   0  0  0  0  0  0  0  0  0  0  0  0
   -2.8990    0.3942    3.5436 H   0  0  0  0  0  0  0  0  0  0  0  0
   -3.5627    0.0740    1.1473 H   0  0  0  0  0  0  0  0  0  0  0  0
  1  2  2  0
  2  3  1  0
  3  4  2  0
  3  5  1  0
  5  6  1  0
  6  7  2  0
  7  8  1  0
  8  9  2  0
  9 10  1  0
 10 11  1  0
 11 12  2  0
 12 13  1  0
 13 14  2  0
 14 15  1  0
 15 16  2  0
 16  2  1  0
 10  5  2  0
 16 11  1  0
  6 17  1  0
  7 18  1  0
  8 19  1  0
 13 20  1  0
 14 21  1  0
 15 22  1  0
M  END
$$$$

     RDKit          3D

 22 24  0  0  0  0  0  0  0  0999 V2000
   -2.3946   -0.4172   -2.3040 O   0  0  0  0  0  0  0  0  0  0  0  0
   -1.4839   -0.1681   -1.4997 C   0  0  0  0  0  0  0  0  0  0  0  0
   -0.5848    1.0149   -1.7582 C   0  0  0  0  0  0  0  0  0  0  0  0
   -0.8067    1.7373   -2.7433 O   0  0  0  0  0  0  0  0  0  0  0  0
    0.5236    1.2745   -0.8255 C   0  0  0  0  0  0  0  0  0  0  0  0
    1.3894    2.3419   -1.0492 C   0  0  0  0  0  0  0  0  0  0  0  0
    2.4216    2.5560   -0.1654 C   0  0  0  0  0  0  0  0  0  0  0  0
    2.5531    1.6693    0.9280 C   0  0  0  0  0  0  0  0  0  0  0  0
    1.7257    0.6460    1.1506 N   0  0  0  0  0  0  0  0  0  0  0  0
    0.7325    0.4495    0.2966 C   0  0  0  0  0  0  0  0  0  0  0  0
   -0.1682   -0.6837    0.5718 C   0  0  0  0  0  0  0  0  0  0  0  0
    0.0859   -1.3998    1.6550 N   0  0  0  0  0  0  0  0  0  0  0  0
   -0.7173   -2.4320    1.9294 C   0  0  0  0  0  0  0  0  0  0  0  0
   -1.8188   -2.7982    1.1275 C   0  0  0  0  0  0  0  0  0  0  0  0
   -2.0776   -2.0491   -0.0009 C   0  0  0  0  0  0  0  0  0  0  0  0
   -1.2472   -0.9792   -0.2989 C   0  0  0  0  0  0  0  0  0  0  0  0
    1.2313    2.9784   -1.9105 H   0  0  0  0  0  0  0  0  0  0  0  0
    3.1104    3.3717   -0.2942 H   0  0  0  0  0  0  0  0  0  0  0  0
    3.3515    1.8008    1.6403 H   0  0  0  0  0  0  0  0  0  0  0  0
   -0.4874   -2.9976    2.8192 H   0  0  0  0  0  0  0  0  0  0  0  0
   -2.4301   -3.6448    1.3895 H   0  0  0  0  0  0  0  0  0  0  0  0
   -2.9087   -2.2708   -0.6581 H   0  0  0  0  0  0  0  0  0  0  0  0
  1  2  2  0
  2  3  1  0
  3  4  2  0
  3  5  1  0
  5  6  1  0
  6  7  2  0
  7  8  1  0
  8  9  2  0
  9 10  1  0
 10 11  1  0
 11 12  2  0
 12 13  1  0
 13 14  2  0
 14 15  1  0
 15 16  2  0
 16  2  1  0
 10  5  2  0
 16 11  1  0
  6 17  1  0
  7 18  1  0
  8 19  1  0
 13 20  1  0
 14 21  1  0
 15 22  1  0
M  END
$$$$

     RDKit          3D

 22 24  0  0  0  0  0  0  0  0999 V2000
   -2.2354    0.1064    2.4895 O   0  0  0  0  0  0  0  0  0  0  0  0
   -1.3846    0.1703    1.5888 C   0  0  0  0  0  0  0  0  0  0  0  0
   -0.6022    1.4449    1.4128 C   0  0  0  0  0  0  0  0  0  0  0  0
   -0.8312    2.4045    2.1658 O   0  0  0  0  0  0  0  0  0  0  0  0
    0.4142    1.5061    0.3497 C   0  0  0  0  0  0  0  0  0  0  0  0
    1.1576    2.6691    0.1702 C   0  0  0  0  0  0  0  0  0  0  0  0
    2.0923    2.7110   -0.8368 C   0  0  0  0  0  0  0  0  0  0  0  0
    2.2445    1.5637   -1.6484 C   0  0  0  0  0  0  0  0  0  0  0  0
    1.5410    0.4404   -1.4791 N   0  0  0  0  0  0  0  0  0  0  0  0
    0.6435    0.4089   -0.5040 C   0  0  0  0  0  0  0  0  0  0  0  0
   -0.1129   -0.8450   -0.3266 C   0  0  0  0  0  0  0  0  0  0  0  0
    0.1738   -1.8410   -1.1488 N   0  0  0  0  0  0  0  0  0  0  0  0
   -0.5020   -2.9881   -1.0043 C   0  0  0  0  0  0  0  0  0  0  0  0
   -1.5043   -3.1851   -0.0329 C   0  0  0  0  0  0  0  0  0  0  0  0
   -1.7994   -2.1437    0.8188 C   0  0  0  0  0  0  0  0  0  0  0  0
   -1.1014   -0.9537    0.6862 C   0  0  0  0  0  0  0  0  0  0  0  0
    0.9882    3.5114    0.8275 H   0  0  0  0  0  0  0  0  0  0  0  0
    2.6910    3.5873   -1.0089 H   0  0  0  0  0  0  0  0  0  0  0  0
    2.9603    1.5635   -2.4540 H   0  0  0  0  0  0  0  0  0  0  0  0
   -0.2471   -3.7848   -1.6841 H   0  0  0  0  0  0  0  0  0  0  0  0
   -2.0285   -4.1230    0.0323 H   0  0  0  0  0  0  0  0  0  0  0  0
   -2.5577   -2.2233    1.5862 H   0  0  0  0  0  0  0  0  0  0  0  0
  1  2  2  0
  2  3  1  0
  3  4  2  0
  3  5  1  0
  5  6  1  0
  6  7  2  0
  7  8  1  0
  8  9  2  0
  9 10  1  0
 10 11  1  0
 11 12  2  0
 12 13  1  0
 13 14  2  0
 14 15  1  0
 15 16  2  0
 16  2  1  0
 10  5  2  0
 16 11  1  0
  6 17  1  0
  7 18  1  0
  8 19  1  0
 13 20  1  0
 14 21  1  0
 15 22  1  0
M  END
$$$$

     RDKit          3D

 22 24  0  0  0  0  0  0  0  0999 V2000
   -2.7802    0.4478   -1.8066 O   0  0  0  0  0  0  0  0  0  0  0  0
   -1.7591    0.1704   -1.1586 C   0  0  0  0  0  0  0  0  0  0  0  0
   -1.1284   -1.1875   -1.3280 C   0  0  0  0  0  0  0  0  0  0  0  0
   -1.6719   -2.0237   -2.0684 O   0  0  0  0  0  0  0  0  0  0  0  0
    0.1251   -1.4759   -0.6135 C   0  0  0  0  0  0  0  0  0  0  0  0
    0.7429   -2.7138   -0.7687 C   0  0  0  0  0  0  0  0  0  0  0  0
    1.9159   -2.9590   -0.0956 C   0  0  0  0  0  0  0  0  0  0  0  0
    2.4326   -1.9336    0.7276 C   0  0  0  0  0  0  0  0  0  0  0  0
    1.8427   -0.7455    0.8865 N   0  0  0  0  0  0  0  0  0  0  0  0
    0.7110   -0.5191    0.2359 C   0  0  0  0  0  0  0  0  0  0  0  0
    0.0796    0.7997    0.4315 C   0  0  0  0  0  0  0  0  0  0  0  0
    0.6877    1.6431    1.2496 N   0  0  0  0  0  0  0  0  0  0  0  0
    0.1205    2.8388    1.4515 C   0  0  0  0  0  0  0  0  0  0  0  0
   -1.0805    3.2480    0.8353 C   0  0  0  0  0  0  0  0  0  0  0  0
   -1.7015    2.3703   -0.0259 C   0  0  0  0  0  0  0  0  0  0  0  0
   -1.1273    1.1274   -0.2400 C   0  0  0  0  0  0  0  0  0  0  0  0
    0.2935   -3.4499   -1.4212 H   0  0  0  0  0  0  0  0  0  0  0  0
    2.4327   -3.8977   -0.1894 H   0  0  0  0  0  0  0  0  0  0  0  0
    3.3518   -2.0878    1.2699 H   0  0  0  0  0  0  0  0  0  0  0  0
    0.6339    3.5062    2.1270 H   0  0  0  0  0  0  0  0  0  0  0  0
   -1.5007    4.2174    1.0417 H   0  0  0  0  0  0  0  0  0  0  0  0
   -2.6203    2.6242   -0.5406 H   0  0  0  0  0  0  0  0  0  0  0  0
  1  2  2  0
  2  3  1  0
  3  4  2  0
  3  5  1  0
  5  6  1  0
  6  7  2  0
  7  8  1  0
  8  9  2  0
  9 10  1  0
 10 11  1  0
 11 12  2  0
 12 13  1  0
 13 14  2  0
 14 15  1  0
 15 16  2  0
 16  2  1  0
 10  5  2  0
 16 11  1  0
  6 17  1  0
  7 18  1  0
  8 19  1  0
 13 20  1  0
 14 21  1  0
 15 22  1  0
M  END
$$$$

     RDKit          3D

 22 24  0  0  0  0  0  0  0  0999 V2000
   -2.7513   -0.2997   -1.8912 O   0  0  0  0  0  0  0  0  0  0  0  0
   -1.7513   -0.2915   -1.1553 C   0  0  0  0  0  0  0  0  0  0  0  0
   -1.4352   -1.5188   -0.3368 C   0  0  0  0  0  0  0  0  0  0  0  0
   -2.1838   -2.5068   -0.4080 O   0  0  0  0  0  0  0  0  0  0  0  0
   -0.2410   -1.4990    0.5241 C   0  0  0  0  0  0  0  0  0  0  0  0
    0.0982   -2.6238    1.2730 C   0  0  0  0  0  0  0  0  0  0  0  0
    1.2129   -2.5736    2.0764 C   0  0  0  0  0  0  0  0  0  0  0  0
    1.9554   -1.3718    2.1070 C   0  0  0  0  0  0  0  0  0  0  0  0
    1.6366   -0.2897    1.3962 N   0  0  0  0  0  0  0  0  0  0  0  0
    0.5677   -0.3508    0.6136 C   0  0  0  0  0  0  0  0  0  0  0  0
    0.2578    0.8534   -0.1770 C   0  0  0  0  0  0  0  0  0  0  0  0
    1.0687    1.8888   -0.0324 N   0  0  0  0  0  0  0  0  0  0  0  0
    0.8246    2.9828   -0.7659 C   0  0  0  0  0  0  0  0  0  0  0  0
   -0.2568    3.0931   -1.6642 C   0  0  0  0  0  0  0  0  0  0  0  0
   -1.1096    2.0178   -1.7900 C   0  0  0  0  0  0  0  0  0  0  0  0
   -0.8650    0.8757   -1.0431 C   0  0  0  0  0  0  0  0  0  0  0  0
   -0.5141   -3.5114    1.2006 H   0  0  0  0  0  0  0  0  0  0  0  0
    1.5201   -3.4179    2.6678 H   0  0  0  0  0  0  0  0  0  0  0  0
    2.8334   -1.2976    2.7298 H   0  0  0  0  0  0  0  0  0  0  0  0
    1.5097    3.8064   -0.6404 H   0  0  0  0  0  0  0  0  0  0  0  0
   -0.4137    3.9949   -2.2298 H   0  0  0  0  0  0  0  0  0  0  0  0
   -1.9633    2.0393   -2.4545 H   0  0  0  0  0  0  0  0  0  0  0  0
  1  2  2  0
  2  3  1  0
  3  4  2  0
  3  5  1  0
  5  6  1  0
  6  7  2  0
  7  8  1  0
  8  9  2  0
  9 10  1  0
 10 11  1  0
 11 12  2  0
 12 13  1  0
 13 14  2  0
 14 15  1  0
 15 16  2  0
 16  2  1  0
 10  5  2  0
 16 11  1  0
  6 17  1  0
  7 18  1  0
  8 19  1  0
 13 20  1  0
 14 21  1  0
 15 22  1  0
M  END
$$$$

     RDKit          3D

 22 24  0  0  0  0  0  0  0  0999 V2000
   -2.0850    2.5206   -0.7118 O   0  0  0  0  0  0  0  0  0  0  0  0
   -1.2929    1.5802   -0.5584 C   0  0  0  0  0  0  0  0  0  0  0  0
   -0.7230    0.8938   -1.7740 C   0  0  0  0  0  0  0  0  0  0  0  0
   -1.0361    1.3039   -2.9031 O   0  0  0  0  0  0  0  0  0  0  0  0
    0.1863   -0.2488   -1.5737 C   0  0  0  0  0  0  0  0  0  0  0  0
    0.6960   -0.9347   -2.6729 C   0  0  0  0  0  0  0  0  0  0  0  0
    1.5422   -1.9984   -2.4630 C   0  0  0  0  0  0  0  0  0  0  0  0
    1.8584   -2.3381   -1.1289 C   0  0  0  0  0  0  0  0  0  0  0  0
    1.3772   -1.6837   -0.0703 N   0  0  0  0  0  0  0  0  0  0  0  0
    0.5531   -0.6669   -0.2809 C   0  0  0  0  0  0  0  0  0  0  0  0
    0.0226    0.0231    0.9091 C   0  0  0  0  0  0  0  0  0  0  0  0
    0.4224   -0.4188    2.0896 N   0  0  0  0  0  0  0  0  0  0  0  0
   -0.0617    0.1796    3.1843 C   0  0  0  0  0  0  0  0  0  0  0  0
   -0.9660    1.2602    3.1439 C   0  0  0  0  0  0  0  0  0  0  0  0
   -1.3726    1.7227    1.9117 C   0  0  0  0  0  0  0  0  0  0  0  0
   -0.8818    1.1078    0.7705 C   0  0  0  0  0  0  0  0  0  0  0  0
    0.4077   -0.6243   -3.6670 H   0  0  0  0  0  0  0  0  0  0  0  0
    1.9553   -2.5603   -3.2806 H   0  0  0  0  0  0  0  0  0  0  0  0
    2.5175   -3.1662   -0.9232 H   0  0  0  0  0  0  0  0  0  0  0  0
    0.2756   -0.2078    4.1326 H   0  0  0  0  0  0  0  0  0  0  0  0
   -1.3300    1.7073    4.0530 H   0  0  0  0  0  0  0  0  0  0  0  0
   -2.0653    2.5488    1.8130 H   0  0  0  0  0  0  0  0  0  0  0  0
  1  2  2  0
  2  3  1  0
  3  4  2  0
  3  5  1  0
  5  6  1  0
  6  7  2  0
  7  8  1  0
  8  9  2  0
  9 10  1  0
 10 11  1  0
 11 12  2  0
 12 13  1  0
 13 14  2  0
 14 15  1  0
 15 16  2  0
 16  2  1  0
 10  5  2  0
 16 11  1  0
  6 17  1  0
  7 18  1  0
  8 19  1  0
 13 20  1  0
 14 21  1  0
 15 22  1  0
M  END
$$$$

     RDKit          3D

 22 24  0  0  0  0  0  0  0  0999 V2000
    1.2443   -1.2784   -2.8336 O   0  0  0  0  0  0  0  0  0  0  0  0
    0.6913   -0.8649   -1.8014 C   0  0  0  0  0  0  0  0  0  0  0  0
   -0.7054   -1.3327   -1.4777 C   0  0  0  0  0  0  0  0  0  0  0  0
   -1.2611   -2.1401   -2.2376 O   0  0  0  0  0  0  0  0  0  0  0  0
   -1.3614   -0.8076   -0.2671 C   0  0  0  0  0  0  0  0  0  0  0  0
   -2.6644   -1.1898    0.0427 C   0  0  0  0  0  0  0  0  0  0  0  0
   -3.2496   -0.6924    1.1828 C   0  0  0  0  0  0  0  0  0  0  0  0
   -2.4951    0.1951    1.9824 C   0  0  0  0  0  0  0  0  0  0  0  0
   -1.2453    0.5647    1.6937 N   0  0  0  0  0  0  0  0  0  0  0  0
   -0.6881    0.0809    0.5936 C   0  0  0  0  0  0  0  0  0  0  0  0
    0.6929    0.5075    0.3000 C   0  0  0  0  0  0  0  0  0  0  0  0
    1.2684    1.3211    1.1691 N   0  0  0  0  0  0  0  0  0  0  0  0
    2.5203    1.7242    0.9184 C   0  0  0  0  0  0  0  0  0  0  0  0
    3.2511    1.3393   -0.2250 C   0  0  0  0  0  0  0  0  0  0  0  0
    2.6451    0.4934   -1.1272 C   0  0  0  0  0  0  0  0  0  0  0  0
    1.3533    0.0574   -0.8720 C   0  0  0  0  0  0  0  0  0  0  0  0
   -3.1893   -1.8627   -0.6211 H   0  0  0  0  0  0  0  0  0  0  0  0
   -4.2506   -0.9640    1.4649 H   0  0  0  0  0  0  0  0  0  0  0  0
   -2.9243    0.6087    2.8804 H   0  0  0  0  0  0  0  0  0  0  0  0
    2.9682    2.3826    1.6444 H   0  0  0  0  0  0  0  0  0  0  0  0
    4.2533    1.7006   -0.3841 H   0  0  0  0  0  0  0  0  0  0  0  0
    3.1464    0.1570   -2.0256 H   0  0  0  0  0  0  0  0  0  0  0  0
  1  2  2  0
  2  3  1  0
  3  4  2  0
  3  5  1  0
  5  6  1  0
  6  7  2  0
  7  8  1  0
  8  9  2  0
  9 10  1  0
 10 11  1  0
 11 12  2  0
 12 13  1  0
 13 14  2  0
 14 15  1  0
 15 16  2  0
 16  2  1  0
 10  5  2  0
 16 11  1  0
  6 17  1  0
  7 18  1  0
  8 19  1  0
 13 20  1  0
 14 21  1  0
 15 22  1  0
M  END
$$$$

     RDKit          3D

 22 24  0  0  0  0  0  0  0  0999 V2000
   -1.7092    0.5500   -2.8267 O   0  0  0  0  0  0  0  0  0  0  0  0
   -1.1537    0.2767   -1.7532 C   0  0  0  0  0  0  0  0  0  0  0  0
   -1.7597   -0.7843   -0.8680 C   0  0  0  0  0  0  0  0  0  0  0  0
   -2.7998   -1.3535   -1.2344 O   0  0  0  0  0  0  0  0  0  0  0  0
   -1.0841   -1.1181    0.3958 C   0  0  0  0  0  0  0  0  0  0  0  0
   -1.6077   -2.1027    1.2305 C   0  0  0  0  0  0  0  0  0  0  0  0
   -0.9541   -2.3941    2.4055 C   0  0  0  0  0  0  0  0  0  0  0  0
    0.2201   -1.6690    2.7086 C   0  0  0  0  0  0  0  0  0  0  0  0
    0.7271   -0.7223    1.9139 N   0  0  0  0  0  0  0  0  0  0  0  0
    0.0935   -0.4500    0.7825 C   0  0  0  0  0  0  0  0  0  0  0  0
    0.6861    0.5912   -0.0759 C   0  0  0  0  0  0  0  0  0  0  0  0
    1.7911    1.1705    0.3616 N   0  0  0  0  0  0  0  0  0  0  0  0
    2.3417    2.1277   -0.3953 C   0  0  0  0  0  0  0  0  0  0  0  0
    1.8098    2.5423   -1.6348 C   0  0  0  0  0  0  0  0  0  0  0  0
    0.6631    1.9267   -2.0894 C   0  0  0  0  0  0  0  0  0  0  0  0
    0.0788    0.9416   -1.3085 C   0  0  0  0  0  0  0  0  0  0  0  0
   -2.5099   -2.6207    0.9341 H   0  0  0  0  0  0  0  0  0  0  0  0
   -1.3191   -3.1485    3.0795 H   0  0  0  0  0  0  0  0  0  0  0  0
    0.7594   -1.8688    3.6203 H   0  0  0  0  0  0  0  0  0  0  0  0
    3.2393    2.5853   -0.0121 H   0  0  0  0  0  0  0  0  0  0  0  0
    2.2844    3.3239   -2.2028 H   0  0  0  0  0  0  0  0  0  0  0  0
    0.2029    2.1961   -3.0313 H   0  0  0  0  0  0  0  0  0  0  0  0
  1  2  2  0
  2  3  1  0
  3  4  2  0
  3  5  1  0
  5  6  1  0
  6  7  2  0
  7  8  1  0
  8  9  2  0
  9 10  1  0
 10 11  1  0
 11 12  2  0
 12 13  1  0
 13 14  2  0
 14 15  1  0
 15 16  2  0
 16  2  1  0
 10  5  2  0
 16 11  1  0
  6 17  1  0
  7 18  1  0
  8 19  1  0
 13 20  1  0
 14 21  1  0
 15 22  1  0
M  END
$$$$

     RDKit          3D

 22 24  0  0  0  0  0  0  0  0999 V2000
    1.7179   -1.2551    2.5864 O   0  0  0  0  0  0  0  0  0  0  0  0
    1.1714   -0.8166    1.5619 C   0  0  0  0  0  0  0  0  0  0  0  0
    2.0036   -0.6015    0.3242 C   0  0  0  0  0  0  0  0  0  0  0  0
    3.2038   -0.9270    0.3314 O   0  0  0  0  0  0  0  0  0  0  0  0
    1.3576    0.0069   -0.8515 C   0  0  0  0  0  0  0  0  0  0  0  0
    2.1076    0.2747   -1.9935 C   0  0  0  0  0  0  0  0  0  0  0  0
    1.4898    0.8612   -3.0732 C   0  0  0  0  0  0  0  0  0  0  0  0
    0.1125    1.1635   -2.9670 C   0  0  0  0  0  0  0  0  0  0  0  0
   -0.6176    0.8981   -1.8814 N   0  0  0  0  0  0  0  0  0  0  0  0
   -0.0118    0.3363   -0.8437 C   0  0  0  0  0  0  0  0  0  0  0  0
   -0.8425    0.0589    0.3407 C   0  0  0  0  0  0  0  0  0  0  0  0
   -2.1272    0.3643    0.2585 N   0  0  0  0  0  0  0  0  0  0  0  0
   -2.9023    0.1088    1.3175 C   0  0  0  0  0  0  0  0  0  0  0  0
   -2.4198   -0.4529    2.5163 C   0  0  0  0  0  0  0  0  0  0  0  0
   -1.0800   -0.7628    2.5961 C   0  0  0  0  0  0  0  0  0  0  0  0
   -0.2646   -0.5057    1.5057 C   0  0  0  0  0  0  0  0  0  0  0  0
    3.1577    0.0139   -2.0061 H   0  0  0  0  0  0  0  0  0  0  0  0
    2.0285    1.0848   -3.9780 H   0  0  0  0  0  0  0  0  0  0  0  0
   -0.4037    1.6297   -3.7926 H   0  0  0  0  0  0  0  0  0  0  0  0
   -3.9463    0.3594    1.2213 H   0  0  0  0  0  0  0  0  0  0  0  0
   -3.0854   -0.6335    3.3431 H   0  0  0  0  0  0  0  0  0  0  0  0
   -0.6494   -1.2056    3.4839 H   0  0  0  0  0  0  0  0  0  0  0  0
  1  2  2  0
  2  3  1  0
  3  4  2  0
  3  5  1  0
  5  6  1  0
  6  7  2  0
  7  8  1  0
  8  9  2  0
  9 10  1  0
 10 11  1  0
 11 12  2  0
 12 13  1  0
 13 14  2  0
 14 15  1  0
 15 16  2  0
 16  2  1  0
 10  5  2  0
 16 11  1  0
  6 17  1  0
  7 18  1  0
  8 19  1  0
 13 20  1  0
 14 21  1  0
 15 22  1  0
M  END
$$$$

     RDKit          3D

 22 24  0  0  0  0  0  0  0  0999 V2000
    2.2389   -0.0214    2.4909 O   0  0  0  0  0  0  0  0  0  0  0  0
    1.3294   -0.0235    1.6478 C   0  0  0  0  0  0  0  0  0  0  0  0
   -0.1056   -0.0501    2.1122 C   0  0  0  0  0  0  0  0  0  0  0  0
   -0.3462   -0.0951    3.3276 O   0  0  0  0  0  0  0  0  0  0  0  0
   -1.1733   -0.0162    1.0979 C   0  0  0  0  0  0  0  0  0  0  0  0
   -2.5091   -0.0439    1.4886 C   0  0  0  0  0  0  0  0  0  0  0  0
   -3.4855   -0.0041    0.5217 C   0  0  0  0  0  0  0  0  0  0  0  0
   -3.0789    0.0676   -0.8301 C   0  0  0  0  0  0  0  0  0  0  0  0
   -1.7994    0.0982   -1.2133 N   0  0  0  0  0  0  0  0  0  0  0  0
   -0.8667    0.0401   -0.2747 C   0  0  0  0  0  0  0  0  0  0  0  0
    0.5340    0.0331   -0.7323 C   0  0  0  0  0  0  0  0  0  0  0  0
    0.7408    0.0547   -2.0396 N   0  0  0  0  0  0  0  0  0  0  0  0
    2.0044    0.0320   -2.4799 C   0  0  0  0  0  0  0  0  0  0  0  0
    3.1248   -0.0031   -1.6249 C   0  0  0  0  0  0  0  0  0  0  0  0
    2.9038   -0.0198   -0.2653 C   0  0  0  0  0  0  0  0  0  0  0  0
    1.5982   -0.0027    0.2033 C   0  0  0  0  0  0  0  0  0  0  0  0
   -2.7513   -0.1018    2.5404 H   0  0  0  0  0  0  0  0  0  0  0  0
   -4.5303   -0.0222    0.7770 H   0  0  0  0  0  0  0  0  0  0  0  0
   -3.8154    0.1000   -1.6163 H   0  0  0  0  0  0  0  0  0  0  0  0
    2.1443    0.0504   -3.5493 H   0  0  0  0  0  0  0  0  0  0  0  0
    4.1243   -0.0259   -2.0275 H   0  0  0  0  0  0  0  0  0  0  0  0
    3.7186   -0.0461    0.4458 H   0  0  0  0  0  0  0  0  0  0  0  0
  1  2  2  0
  2  3  1  0
  3  4  2  0
  3  5  1  0
  5  6  1  0
  6  7  2  0
  7  8  1  0
  8  9  2  0
  9 10  1  0
 10 11  1  0
 11 12  2  0
 12 13  1  0
 13 14  2  0
 14 15  1  0
 15 16  2  0
 16  2  1  0
 10  5  2  0
 16 11  1  0
  6 17  1  0
  7 18  1  0
  8 19  1  0
 13 20  1  0
 14 21  1  0
 15 22  1  0
M  END
$$$$

     RDKit          3D

 22 24  0  0  0  0  0  0  0  0999 V2000
   -2.6594   -1.9444   -0.6126 O   0  0  0  0  0  0  0  0  0  0  0  0
   -1.7440   -1.1526   -0.3438 C   0  0  0  0  0  0  0  0  0  0  0  0
   -2.0818    0.1428    0.3511 C   0  0  0  0  0  0  0  0  0  0  0  0
   -3.2683    0.3994    0.6108 O   0  0  0  0  0  0  0  0  0  0  0  0
   -0.9835    1.0568    0.7044 C   0  0  0  0  0  0  0  0  0  0  0  0
   -1.2536    2.2454    1.3778 C   0  0  0  0  0  0  0  0  0  0  0  0
   -0.2078    3.0818    1.6928 C   0  0  0  0  0  0  0  0  0  0  0  0
    1.0956    2.6905    1.3114 C   0  0  0  0  0  0  0  0  0  0  0  0
    1.3613    1.5570    0.6570 N   0  0  0  0  0  0  0  0  0  0  0  0
    0.3484    0.7569    0.3591 C   0  0  0  0  0  0  0  0  0  0  0  0
    0.6775   -0.4866   -0.3597 C   0  0  0  0  0  0  0  0  0  0  0  0
    1.9479   -0.6772   -0.6748 N   0  0  0  0  0  0  0  0  0  0  0  0
    2.2706   -1.7962   -1.3341 C   0  0  0  0  0  0  0  0  0  0  0  0
    1.3322   -2.7863   -1.6915 C   0  0  0  0  0  0  0  0  0  0  0  0
    0.0108   -2.5832   -1.3557 C   0  0  0  0  0  0  0  0  0  0  0  0
   -0.3401   -1.4171   -0.6924 C   0  0  0  0  0  0  0  0  0  0  0  0
   -2.2749    2.4844    1.6419 H   0  0  0  0  0  0  0  0  0  0  0  0
   -0.3673    4.0072    2.2160 H   0  0  0  0  0  0  0  0  0  0  0  0
    1.9412    3.3158    1.5478 H   0  0  0  0  0  0  0  0  0  0  0  0
    3.3106   -1.9197   -1.5900 H   0  0  0  0  0  0  0  0  0  0  0  0
    1.6439   -3.6724   -2.2161 H   0  0  0  0  0  0  0  0  0  0  0  0
   -0.7593   -3.3023   -1.5993 H   0  0  0  0  0  0  0  0  0  0  0  0
  1  2  2  0
  2  3  1  0
  3  4  2  0
  3  5  1  0
  5  6  1  0
  6  7  2  0
  7  8  1  0
  8  9  2  0
  9 10  1  0
 10 11  1  0
 11 12  2  0
 12 13  1  0
 13 14  2  0
 14 15  1  0
 15 16  2  0
 16  2  1  0
 10  5  2  0
 16 11  1  0
  6 17  1  0
  7 18  1  0
  8 19  1  0
 13 20  1  0
 14 21  1  0
 15 22  1  0
M  END
$$$$

     RDKit          3D

 22 24  0  0  0  0  0  0  0  0999 V2000
    1.9213   -2.6466    0.7254 O   0  0  0  0  0  0  0  0  0  0  0  0
    1.1281   -1.7340    0.4497 C   0  0  0  0  0  0  0  0  0  0  0  0
   -0.3360   -2.0620    0.3059 C   0  0  0  0  0  0  0  0  0  0  0  0
   -0.7127   -3.2365    0.4529 O   0  0  0  0  0  0  0  0  0  0  0  0
   -1.2758   -0.9699    0.0015 C   0  0  0  0  0  0  0  0  0  0  0  0
   -2.6344   -1.2414   -0.1376 C   0  0  0  0  0  0  0  0  0  0  0  0
   -3.4935   -0.2056   -0.4210 C   0  0  0  0  0  0  0  0  0  0  0  0
   -2.9471    1.0906   -0.5566 C   0  0  0  0  0  0  0  0  0  0  0  0
   -1.6449    1.3597   -0.4274 N   0  0  0  0  0  0  0  0  0  0  0  0
   -0.8241    0.3539   -0.1558 C   0  0  0  0  0  0  0  0  0  0  0  0
    0.6079    0.6762   -0.0212 C   0  0  0  0  0  0  0  0  0  0  0  0
    0.9506    1.9439   -0.1787 N   0  0  0  0  0  0  0  0  0  0  0  0
    2.2490    2.2582   -0.0800 C   0  0  0  0  0  0  0  0  0  0  0  0
    3.2628    1.3151    0.1810 C   0  0  0  0  0  0  0  0  0  0  0  0
    2.8971   -0.0023    0.3508 C   0  0  0  0  0  0  0  0  0  0  0  0
    1.5561   -0.3418    0.2580 C   0  0  0  0  0  0  0  0  0  0  0  0
   -2.9798   -2.2582   -0.0156 H   0  0  0  0  0  0  0  0  0  0  0  0
   -4.5515   -0.3654   -0.5342 H   0  0  0  0  0  0  0  0  0  0  0  0
   -3.5914    1.9266   -0.7768 H   0  0  0  0  0  0  0  0  0  0  0  0
    2.4991    3.2989   -0.2094 H   0  0  0  0  0  0  0  0  0  0  0  0
    4.2945    1.6184    0.2409 H   0  0  0  0  0  0  0  0  0  0  0  0
    3.6248   -0.7778    0.5484 H   0  0  0  0  0  0  0  0  0  0  0  0
  1  2  2  0
  2  3  1  0
  3  4  2  0
  3  5  1  0
  5  6  1  0
  6  7  2  0
  7  8  1  0
  8  9  2  0
  9 10  1  0
 10 11  1  0
 11 12  2  0
 12 13  1  0
 13 14  2  0
 14 15  1  0
 15 16  2  0
 16  2  1  0
 10  5  2  0
 16 11  1  0
  6 17  1  0
  7 18  1  0
  8 19  1  0
 13 20  1  0
 14 21  1  0
 15 22  1  0
M  END
$$$$
