
     RDKit          3D

 22 24  0  0  0  0  0  0  0  0999 V2000
   -2.4619    1.1544    2.2171 C   0  0  0  0  0  0  0  0  0  0  0  0
   -1.8439    2.1674    1.4550 C   0  0  0  0  0  0  0  0  0  0  0  0
   -0.8920    1.9316    0.5479 N   0  0  0  0  0  0  0  0  0  0  0  0
   -0.5055    0.6683    0.3637 C   0  0  0  0  0  0  0  0  0  0  0  0
   -1.0631   -0.4343    1.0823 C   0  0  0  0  0  0  0  0  0  0  0  0
   -2.0663   -0.1443    2.0272 C   0  0  0  0  0  0  0  0  0  0  0  0
   -0.6076   -1.7604    0.8332 C   0  0  0  0  0  0  0  0  0  0  0  0
    0.3568   -2.0109   -0.0767 C   0  0  0  0  0  0  0  0  0  0  0  0
    0.9671   -0.9576   -0.8129 C   0  0  0  0  0  0  0  0  0  0  0  0
    1.9936   -1.1806   -1.7458 C   0  0  0  0  0  0  0  0  0  0  0  0
    2.5443   -0.1120   -2.4111 C   0  0  0  0  0  0  0  0  0  0  0  0
    2.0558    1.1810   -2.1415 C   0  0  0  0  0  0  0  0  0  0  0  0
    1.0701    1.4329   -1.2703 N   0  0  0  0  0  0  0  0  0  0  0  0
    0.5471    0.4006   -0.6101 C   0  0  0  0  0  0  0  0  0  0  0  0
   -3.2239    1.4112    2.9312 H   0  0  0  0  0  0  0  0  0  0  0  0
   -2.1352    3.1940    1.5899 H   0  0  0  0  0  0  0  0  0  0  0  0
   -2.5000   -0.9515    2.5812 H   0  0  0  0  0  0  0  0  0  0  0  0
   -1.0694   -2.5623    1.3949 H   0  0  0  0  0  0  0  0  0  0  0  0
    0.6946   -3.0221   -0.2669 H   0  0  0  0  0  0  0  0  0  0  0  0
    2.3265   -2.1848   -1.9123 H   0  0  0  0  0  0  0  0  0  0  0  0
    3.3364   -0.2528   -3.1271 H   0  0  0  0  0  0  0  0  0  0  0  0
    2.4765    2.0323   -2.6488 H   0  0  0  0  0  0  0  0  0  0  0  0
  1  2  1  0
  2  3  2  0
  3  4  1  0
  4  5  2  0
  5  6  1  0
  5  7  1  0
  7  8  2  0
  8  9  1  0
  9 10  2  0
 10 11  1  0
 11 12  2  0
 12 13  1  0
 13 14  2  0
  6  1  2  0
 14  9  1  0
 14  4  1  0
  1 15  1  0
  2 16  1  0
  6 17  1  0
  7 18  1  0
  8 19  1  0
 10 20  1  0
 11 21  1  0
 12 22  1  0
M  END
$$$$

     RDKit          3D

 22 24  0  0  0  0  0  0  0  0999 V2000
    1.3845   -0.0602   -3.2224 C   0  0  0  0  0  0  0  0  0  0  0  0
    1.7458    1.0683   -2.4557 C   0  0  0  0  0  0  0  0  0  0  0  0
    1.3327    1.2700   -1.2002 N   0  0  0  0  0  0  0  0  0  0  0  0
    0.5304    0.3547   -0.6553 C   0  0  0  0  0  0  0  0  0  0  0  0
    0.1086   -0.8277   -1.3393 C   0  0  0  0  0  0  0  0  0  0  0  0
    0.5714   -1.0083   -2.6565 C   0  0  0  0  0  0  0  0  0  0  0  0
   -0.7485   -1.7640   -0.6952 C   0  0  0  0  0  0  0  0  0  0  0  0
   -1.1929   -1.5601    0.5617 C   0  0  0  0  0  0  0  0  0  0  0  0
   -0.8173   -0.4016    1.2963 C   0  0  0  0  0  0  0  0  0  0  0  0
   -1.2625   -0.1598    2.6070 C   0  0  0  0  0  0  0  0  0  0  0  0
   -0.8595    0.9832    3.2547 C   0  0  0  0  0  0  0  0  0  0  0  0
   -0.0083    1.8812    2.5803 C   0  0  0  0  0  0  0  0  0  0  0  0
    0.4361    1.6854    1.3337 N   0  0  0  0  0  0  0  0  0  0  0  0
    0.0478    0.5785    0.7025 C   0  0  0  0  0  0  0  0  0  0  0  0
    1.7414   -0.1579   -4.2323 H   0  0  0  0  0  0  0  0  0  0  0  0
    2.3859    1.8229   -2.8776 H   0  0  0  0  0  0  0  0  0  0  0  0
    0.2687   -1.8849   -3.1920 H   0  0  0  0  0  0  0  0  0  0  0  0
   -1.0312   -2.6523   -1.2481 H   0  0  0  0  0  0  0  0  0  0  0  0
   -1.8573   -2.2704    1.0404 H   0  0  0  0  0  0  0  0  0  0  0  0
   -1.9103   -0.8773    3.0687 H   0  0  0  0  0  0  0  0  0  0  0  0
   -1.1829    1.1970    4.2597 H   0  0  0  0  0  0  0  0  0  0  0  0
    0.3175    2.7832    3.0696 H   0  0  0  0  0  0  0  0  0  0  0  0
  1  2  1  0
  2  3  2  0
  3  4  1  0
  4  5  2  0
  5  6  1  0
  5  7  1  0
  7  8  2  0
  8  9  1  0
  9 10  2  0
 10 11  1  0
 11 12  2  0
 12 13  1  0
 13 14  2  0
  6  1  2  0
 14  9  1  0
 14  4  1  0
  1 15  1  0
  2 16  1  0
  6 17  1  0
  7 18  1  0
  8 19  1  0
 10 20  1  0
 11 21  1  0
 12 22  1  0
M  END
$$$$

     RDKit          3D

 22 24  0  0  0  0  0  0  0  0999 V2000
    0.3458   -1.4890   -3.1552 C   0  0  0  0  0  0  0  0  0  0  0  0
    0.4581   -0.0830   -3.1588 C   0  0  0  0  0  0  0  0  0  0  0  0
    0.3559    0.6641   -2.0571 N   0  0  0  0  0  0  0  0  0  0  0  0
    0.1484    0.0423   -0.8967 C   0  0  0  0  0  0  0  0  0  0  0  0
    0.0359   -1.3777   -0.7754 C   0  0  0  0  0  0  0  0  0  0  0  0
    0.1386   -2.1311   -1.9603 C   0  0  0  0  0  0  0  0  0  0  0  0
   -0.1712   -1.9744    0.5005 C   0  0  0  0  0  0  0  0  0  0  0  0
   -0.2783   -1.2222    1.6155 C   0  0  0  0  0  0  0  0  0  0  0  0
   -0.1926    0.1968    1.5618 C   0  0  0  0  0  0  0  0  0  0  0  0
   -0.3147    1.0106    2.7007 C   0  0  0  0  0  0  0  0  0  0  0  0
   -0.2426    2.3767    2.5659 C   0  0  0  0  0  0  0  0  0  0  0  0
   -0.0344    2.9220    1.2847 C   0  0  0  0  0  0  0  0  0  0  0  0
    0.1003    2.1792    0.1784 N   0  0  0  0  0  0  0  0  0  0  0  0
    0.0174    0.8562    0.3049 C   0  0  0  0  0  0  0  0  0  0  0  0
    0.4210   -2.0335   -4.0796 H   0  0  0  0  0  0  0  0  0  0  0  0
    0.6285    0.4415   -4.0823 H   0  0  0  0  0  0  0  0  0  0  0  0
    0.0428   -3.1967   -1.9042 H   0  0  0  0  0  0  0  0  0  0  0  0
   -0.2394   -3.0547    0.5449 H   0  0  0  0  0  0  0  0  0  0  0  0
   -0.4389   -1.6846    2.5825 H   0  0  0  0  0  0  0  0  0  0  0  0
   -0.4675    0.5429    3.6524 H   0  0  0  0  0  0  0  0  0  0  0  0
   -0.3408    3.0254    3.4203 H   0  0  0  0  0  0  0  0  0  0  0  0
    0.0275    3.9892    1.1571 H   0  0  0  0  0  0  0  0  0  0  0  0
  1  2  1  0
  2  3  2  0
  3  4  1  0
  4  5  2  0
  5  6  1  0
  5  7  1  0
  7  8  2  0
  8  9  1  0
  9 10  2  0
 10 11  1  0
 11 12  2  0
 12 13  1  0
 13 14  2  0
  6  1  2  0
 14  9  1  0
 14  4  1  0
  1 15  1  0
  2 16  1  0
  6 17  1  0
  7 18  1  0
  8 19  1  0
 10 20  1  0
 11 21  1  0
 12 22  1  0
M  END
$$$$

     RDKit          3D

 22 24  0  0  0  0  0  0  0  0999 V2000
    2.4224   -2.5302   -0.1693 C   0  0  0  0  0  0  0  0  0  0  0  0
    1.3390   -2.6998   -1.0566 C   0  0  0  0  0  0  0  0  0  0  0  0
    0.3189   -1.8435   -1.1411 N   0  0  0  0  0  0  0  0  0  0  0  0
    0.3319   -0.7742   -0.3437 C   0  0  0  0  0  0  0  0  0  0  0  0
    1.3706   -0.5118    0.6009 C   0  0  0  0  0  0  0  0  0  0  0  0
    2.4358   -1.4309    0.6518 C   0  0  0  0  0  0  0  0  0  0  0  0
    1.3055    0.6400    1.4364 C   0  0  0  0  0  0  0  0  0  0  0  0
    0.2708    1.5034    1.3621 C   0  0  0  0  0  0  0  0  0  0  0  0
   -0.7911    1.3066    0.4357 C   0  0  0  0  0  0  0  0  0  0  0  0
   -1.8795    2.1907    0.3231 C   0  0  0  0  0  0  0  0  0  0  0  0
   -2.8568    1.9367   -0.6094 C   0  0  0  0  0  0  0  0  0  0  0  0
   -2.7398    0.7938   -1.4243 C   0  0  0  0  0  0  0  0  0  0  0  0
   -1.7258   -0.0751   -1.3395 N   0  0  0  0  0  0  0  0  0  0  0  0
   -0.7771    0.1668   -0.4373 C   0  0  0  0  0  0  0  0  0  0  0  0
    3.2144   -3.2572   -0.1466 H   0  0  0  0  0  0  0  0  0  0  0  0
    1.3035   -3.5564   -1.7064 H   0  0  0  0  0  0  0  0  0  0  0  0
    3.2360   -1.2524    1.3396 H   0  0  0  0  0  0  0  0  0  0  0  0
    2.1149    0.7993    2.1384 H   0  0  0  0  0  0  0  0  0  0  0  0
    0.2213    2.3719    2.0084 H   0  0  0  0  0  0  0  0  0  0  0  0
   -1.9240    3.0423    0.9717 H   0  0  0  0  0  0  0  0  0  0  0  0
   -3.7002    2.5962   -0.7269 H   0  0  0  0  0  0  0  0  0  0  0  0
   -3.4907    0.5839   -2.1670 H   0  0  0  0  0  0  0  0  0  0  0  0
  1  2  1  0
  2  3  2  0
  3  4  1  0
  4  5  2  0
  5  6  1  0
  5  7  1  0
  7  8  2  0
  8  9  1  0
  9 10  2  0
 10 11  1  0
 11 12  2  0
 12 13  1  0
 13 14  2  0
  6  1  2  0
 14  9  1  0
 14  4  1  0
  1 15  1  0
  2 16  1  0
  6 17  1  0
  7 18  1  0
  8 19  1  0
 10 20  1  0
 11 21  1  0
 12 22  1  0
M  END
$$$$

     RDKit          3D

 22 24  0  0  0  0  0  0  0  0999 V2000
   -0.9698    2.8757    1.7572 C   0  0  0  0  0  0  0  0  0  0  0  0
   -0.4518    3.1269    0.4700 C   0  0  0  0  0  0  0  0  0  0  0  0
   -0.0262    2.1633   -0.3533 N   0  0  0  0  0  0  0  0  0  0  0  0
   -0.1024    0.9024    0.0702 C   0  0  0  0  0  0  0  0  0  0  0  0
   -0.6165    0.5350    1.3522 C   0  0  0  0  0  0  0  0  0  0  0  0
   -1.0540    1.5778    2.1909 C   0  0  0  0  0  0  0  0  0  0  0  0
   -0.6754   -0.8340    1.7379 C   0  0  0  0  0  0  0  0  0  0  0  0
   -0.2538   -1.8122    0.9108 C   0  0  0  0  0  0  0  0  0  0  0  0
    0.2738   -1.5155   -0.3774 C   0  0  0  0  0  0  0  0  0  0  0  0
    0.7203   -2.5092   -1.2648 C   0  0  0  0  0  0  0  0  0  0  0  0
    1.2269   -2.1434   -2.4894 C   0  0  0  0  0  0  0  0  0  0  0  0
    1.2852   -0.7744   -2.8191 C   0  0  0  0  0  0  0  0  0  0  0  0
    0.8576    0.2001   -2.0077 N   0  0  0  0  0  0  0  0  0  0  0  0
    0.3671   -0.1526   -0.8194 C   0  0  0  0  0  0  0  0  0  0  0  0
   -1.2895    3.6952    2.3771 H   0  0  0  0  0  0  0  0  0  0  0  0
   -0.3805    4.1343    0.1046 H   0  0  0  0  0  0  0  0  0  0  0  0
   -1.4455    1.3307    3.1555 H   0  0  0  0  0  0  0  0  0  0  0  0
   -1.0804   -1.0650    2.7153 H   0  0  0  0  0  0  0  0  0  0  0  0
   -0.3018   -2.8520    1.2119 H   0  0  0  0  0  0  0  0  0  0  0  0
    0.6572   -3.5349   -0.9597 H   0  0  0  0  0  0  0  0  0  0  0  0
    1.5739   -2.8821   -3.1920 H   0  0  0  0  0  0  0  0  0  0  0  0
    1.6856   -0.4661   -3.7708 H   0  0  0  0  0  0  0  0  0  0  0  0
  1  2  1  0
  2  3  2  0
  3  4  1  0
  4  5  2  0
  5  6  1  0
  5  7  1  0
  7  8  2  0
  8  9  1  0
  9 10  2  0
 10 11  1  0
 11 12  2  0
 12 13  1  0
 13 14  2  0
  6  1  2  0
 14  9  1  0
 14  4  1  0
  1 15  1  0
  2 16  1  0
  6 17  1  0
  7 18  1  0
  8 19  1  0
 10 20  1  0
 11 21  1  0
 12 22  1  0
M  END
$$$$

     RDKit          3D

 22 24  0  0  0  0  0  0  0  0999 V2000
   -1.8648    2.7966    1.0062 C   0  0  0  0  0  0  0  0  0  0  0  0
   -0.8299    3.0817    0.0913 C   0  0  0  0  0  0  0  0  0  0  0  0
   -0.0092    2.1539   -0.4083 N   0  0  0  0  0  0  0  0  0  0  0  0
   -0.1864    0.8910   -0.0185 C   0  0  0  0  0  0  0  0  0  0  0  0
   -1.1939    0.4922    0.9126 C   0  0  0  0  0  0  0  0  0  0  0  0
   -2.0427    1.4990    1.4129 C   0  0  0  0  0  0  0  0  0  0  0  0
   -1.3129   -0.8735    1.2973 C   0  0  0  0  0  0  0  0  0  0  0  0
   -0.4892   -1.8187    0.7964 C   0  0  0  0  0  0  0  0  0  0  0  0
    0.5323   -1.4890   -0.1381 C   0  0  0  0  0  0  0  0  0  0  0  0
    1.4092   -2.4464   -0.6788 C   0  0  0  0  0  0  0  0  0  0  0  0
    2.3604   -2.0507   -1.5883 C   0  0  0  0  0  0  0  0  0  0  0  0
    2.4286   -0.6914   -1.9518 C   0  0  0  0  0  0  0  0  0  0  0  0
    1.6200    0.2486   -1.4518 N   0  0  0  0  0  0  0  0  0  0  0  0
    0.6995   -0.1291   -0.5669 C   0  0  0  0  0  0  0  0  0  0  0  0
   -2.4912    3.5914    1.3715 H   0  0  0  0  0  0  0  0  0  0  0  0
   -0.6684    4.0921   -0.2389 H   0  0  0  0  0  0  0  0  0  0  0  0
   -2.8112    1.2247    2.1056 H   0  0  0  0  0  0  0  0  0  0  0  0
   -2.0878   -1.1288    2.0096 H   0  0  0  0  0  0  0  0  0  0  0  0
   -0.5824   -2.8546    1.0980 H   0  0  0  0  0  0  0  0  0  0  0  0
    1.3130   -3.4666   -0.3688 H   0  0  0  0  0  0  0  0  0  0  0  0
    3.0442   -2.7599   -2.0244 H   0  0  0  0  0  0  0  0  0  0  0  0
    3.1629   -0.3624   -2.6668 H   0  0  0  0  0  0  0  0  0  0  0  0
  1  2  1  0
  2  3  2  0
  3  4  1  0
  4  5  2  0
  5  6  1  0
  5  7  1  0
  7  8  2  0
  8  9  1  0
  9 10  2  0
 10 11  1  0
 11 12  2  0
 12 13  1  0
 13 14  2  0
  6  1  2  0
 14  9  1  0
 14  4  1  0
  1 15  1  0
  2 16  1  0
  6 17  1  0
  7 18  1  0
  8 19  1  0
 10 20  1  0
 11 21  1  0
 12 22  1  0
M  END
$$$$

     RDKit          3D

 22 24  0  0  0  0  0  0  0  0999 V2000
    0.9363   -1.1368   -3.1848 C   0  0  0  0  0  0  0  0  0  0  0  0
    1.4851    0.1116   -2.8258 C   0  0  0  0  0  0  0  0  0  0  0  0
    1.2526    0.7112   -1.6557 N   0  0  0  0  0  0  0  0  0  0  0  0
    0.4513    0.0940   -0.7864 C   0  0  0  0  0  0  0  0  0  0  0  0
   -0.1622   -1.1706   -1.0492 C   0  0  0  0  0  0  0  0  0  0  0  0
    0.1130   -1.7737   -2.2920 C   0  0  0  0  0  0  0  0  0  0  0  0
   -1.0090   -1.7723   -0.0764 C   0  0  0  0  0  0  0  0  0  0  0  0
   -1.2483   -1.1764    1.1102 C   0  0  0  0  0  0  0  0  0  0  0  0
   -0.6707    0.0823    1.4364 C   0  0  0  0  0  0  0  0  0  0  0  0
   -0.8957    0.7310    2.6631 C   0  0  0  0  0  0  0  0  0  0  0  0
   -0.3041    1.9474    2.9020 C   0  0  0  0  0  0  0  0  0  0  0  0
    0.5110    2.5143    1.9031 C   0  0  0  0  0  0  0  0  0  0  0  0
    0.7505    1.9271    0.7253 N   0  0  0  0  0  0  0  0  0  0  0  0
    0.1840    0.7444    0.4918 C   0  0  0  0  0  0  0  0  0  0  0  0
    1.1653   -1.5660   -4.1432 H   0  0  0  0  0  0  0  0  0  0  0  0
    2.1325    0.6300   -3.5110 H   0  0  0  0  0  0  0  0  0  0  0  0
   -0.3345   -2.7199   -2.5163 H   0  0  0  0  0  0  0  0  0  0  0  0
   -1.4548   -2.7294   -0.3194 H   0  0  0  0  0  0  0  0  0  0  0  0
   -1.8954   -1.6418    1.8419 H   0  0  0  0  0  0  0  0  0  0  0  0
   -1.5304    0.2604    3.3860 H   0  0  0  0  0  0  0  0  0  0  0  0
   -0.4555    2.4637    3.8348 H   0  0  0  0  0  0  0  0  0  0  0  0
    0.9790    3.4694    2.0656 H   0  0  0  0  0  0  0  0  0  0  0  0
  1  2  1  0
  2  3  2  0
  3  4  1  0
  4  5  2  0
  5  6  1  0
  5  7  1  0
  7  8  2  0
  8  9  1  0
  9 10  2  0
 10 11  1  0
 11 12  2  0
 12 13  1  0
 13 14  2  0
  6  1  2  0
 14  9  1  0
 14  4  1  0
  1 15  1  0
  2 16  1  0
  6 17  1  0
  7 18  1  0
  8 19  1  0
 10 20  1  0
 11 21  1  0
 12 22  1  0
M  END
$$$$

     RDKit          3D

 22 24  0  0  0  0  0  0  0  0999 V2000
    2.6474    2.2755    0.2989 C   0  0  0  0  0  0  0  0  0  0  0  0
    2.5955    1.6036   -0.9405 C   0  0  0  0  0  0  0  0  0  0  0  0
    1.6747    0.6830   -1.2408 N   0  0  0  0  0  0  0  0  0  0  0  0
    0.7510    0.4060   -0.3196 C   0  0  0  0  0  0  0  0  0  0  0  0
    0.7127    1.0217    0.9696 C   0  0  0  0  0  0  0  0  0  0  0  0
    1.7022    1.9831    1.2493 C   0  0  0  0  0  0  0  0  0  0  0  0
   -0.2982    0.6680    1.9086 C   0  0  0  0  0  0  0  0  0  0  0  0
   -1.2484   -0.2420    1.6062 C   0  0  0  0  0  0  0  0  0  0  0  0
   -1.2800   -0.8768    0.3322 C   0  0  0  0  0  0  0  0  0  0  0  0
   -2.2712   -1.8041   -0.0312 C   0  0  0  0  0  0  0  0  0  0  0  0
   -2.2359   -2.3736   -1.2816 C   0  0  0  0  0  0  0  0  0  0  0  0
   -1.1995   -2.0113   -2.1651 C   0  0  0  0  0  0  0  0  0  0  0  0
   -0.2385   -1.1338   -1.8564 N   0  0  0  0  0  0  0  0  0  0  0  0
   -0.2748   -0.5749   -0.6478 C   0  0  0  0  0  0  0  0  0  0  0  0
    3.4166    3.0056    0.4790 H   0  0  0  0  0  0  0  0  0  0  0  0
    3.3215    1.8241   -1.7029 H   0  0  0  0  0  0  0  0  0  0  0  0
    1.6924    2.4698    2.2034 H   0  0  0  0  0  0  0  0  0  0  0  0
   -0.2826    1.1604    2.8734 H   0  0  0  0  0  0  0  0  0  0  0  0
   -2.0115   -0.5112    2.3263 H   0  0  0  0  0  0  0  0  0  0  0  0
   -3.0374   -2.0408    0.6790 H   0  0  0  0  0  0  0  0  0  0  0  0
   -2.9850   -3.0819   -1.5932 H   0  0  0  0  0  0  0  0  0  0  0  0
   -1.1510   -2.4504   -3.1469 H   0  0  0  0  0  0  0  0  0  0  0  0
  1  2  1  0
  2  3  2  0
  3  4  1  0
  4  5  2  0
  5  6  1  0
  5  7  1  0
  7  8  2  0
  8  9  1  0
  9 10  2  0
 10 11  1  0
 11 12  2  0
 12 13  1  0
 13 14  2  0
  6  1  2  0
 14  9  1  0
 14  4  1  0
  1 15  1  0
  2 16  1  0
  6 17  1  0
  7 18  1  0
  8 19  1  0
 10 20  1  0
 11 21  1  0
 12 22  1  0
M  END
$$$$

     RDKit          3D

 22 24  0  0  0  0  0  0  0  0999 V2000
   -2.3786    2.1684    1.3998 C   0  0  0  0  0  0  0  0  0  0  0  0
   -2.8657    0.8774    1.1105 C   0  0  0  0  0  0  0  0  0  0  0  0
   -2.1131   -0.0918    0.5808 N   0  0  0  0  0  0  0  0  0  0  0  0
   -0.8365    0.1822    0.3127 C   0  0  0  0  0  0  0  0  0  0  0  0
   -0.2436    1.4595    0.5525 C   0  0  0  0  0  0  0  0  0  0  0  0
   -1.0658    2.4529    1.1203 C   0  0  0  0  0  0  0  0  0  0  0  0
    1.1221    1.6901    0.2193 C   0  0  0  0  0  0  0  0  0  0  0  0
    1.8850    0.7217   -0.3295 C   0  0  0  0  0  0  0  0  0  0  0  0
    1.3590   -0.5746   -0.5877 C   0  0  0  0  0  0  0  0  0  0  0  0
    2.1240   -1.6081   -1.1549 C   0  0  0  0  0  0  0  0  0  0  0  0
    1.5437   -2.8341   -1.3709 C   0  0  0  0  0  0  0  0  0  0  0  0
    0.1944   -3.0197   -1.0124 C   0  0  0  0  0  0  0  0  0  0  0  0
   -0.5642   -2.0620   -0.4675 N   0  0  0  0  0  0  0  0  0  0  0  0
   -0.0098   -0.8693   -0.2678 C   0  0  0  0  0  0  0  0  0  0  0  0
   -3.0362    2.9058    1.8262 H   0  0  0  0  0  0  0  0  0  0  0  0
   -3.8917    0.6320    1.3163 H   0  0  0  0  0  0  0  0  0  0  0  0
   -0.6461    3.4190    1.3108 H   0  0  0  0  0  0  0  0  0  0  0  0
    1.5296    2.6746    0.4161 H   0  0  0  0  0  0  0  0  0  0  0  0
    2.9192    0.9096   -0.5935 H   0  0  0  0  0  0  0  0  0  0  0  0
    3.1468   -1.4151   -1.4068 H   0  0  0  0  0  0  0  0  0  0  0  0
    2.1054   -3.6462   -1.8021 H   0  0  0  0  0  0  0  0  0  0  0  0
   -0.2781   -3.9724   -1.1722 H   0  0  0  0  0  0  0  0  0  0  0  0
  1  2  1  0
  2  3  2  0
  3  4  1  0
  4  5  2  0
  5  6  1  0
  5  7  1  0
  7  8  2  0
  8  9  1  0
  9 10  2  0
 10 11  1  0
 11 12  2  0
 12 13  1  0
 13 14  2  0
  6  1  2  0
 14  9  1  0
 14  4  1  0
  1 15  1  0
  2 16  1  0
  6 17  1  0
  7 18  1  0
  8 19  1  0
 10 20  1  0
 11 21  1  0
 12 22  1  0
M  END
$$$$

     RDKit          3D

 22 24  0  0  0  0  0  0  0  0999 V2000
    3.2810    0.4587    1.1609 C   0  0  0  0  0  0  0  0  0  0  0  0
    3.1592    0.4069   -0.2430 C   0  0  0  0  0  0  0  0  0  0  0  0
    1.9955    0.2384   -0.8760 N   0  0  0  0  0  0  0  0  0  0  0  0
    0.8924    0.1188   -0.1378 C   0  0  0  0  0  0  0  0  0  0  0  0
    0.9002    0.1530    1.2909 C   0  0  0  0  0  0  0  0  0  0  0  0
    2.1475    0.3312    1.9222 C   0  0  0  0  0  0  0  0  0  0  0  0
   -0.3179    0.0156    2.0157 C   0  0  0  0  0  0  0  0  0  0  0  0
   -1.4970   -0.1615    1.3826 C   0  0  0  0  0  0  0  0  0  0  0  0
   -1.5721   -0.2083   -0.0373 C   0  0  0  0  0  0  0  0  0  0  0  0
   -2.7825   -0.3967   -0.7269 C   0  0  0  0  0  0  0  0  0  0  0  0
   -2.7763   -0.4254   -2.1006 C   0  0  0  0  0  0  0  0  0  0  0  0
   -1.5527   -0.2590   -2.7784 C   0  0  0  0  0  0  0  0  0  0  0  0
   -0.3817   -0.0799   -2.1567 N   0  0  0  0  0  0  0  0  0  0  0  0
   -0.3810   -0.0617   -0.8251 C   0  0  0  0  0  0  0  0  0  0  0  0
    4.2488    0.5948    1.6101 H   0  0  0  0  0  0  0  0  0  0  0  0
    4.0330    0.5041   -0.8614 H   0  0  0  0  0  0  0  0  0  0  0  0
    2.1830    0.3577    2.9920 H   0  0  0  0  0  0  0  0  0  0  0  0
   -0.2662    0.0554    3.0974 H   0  0  0  0  0  0  0  0  0  0  0  0
   -2.4174   -0.2735    1.9428 H   0  0  0  0  0  0  0  0  0  0  0  0
   -3.6827   -0.5173   -0.1593 H   0  0  0  0  0  0  0  0  0  0  0  0
   -3.6862   -0.5711   -2.6579 H   0  0  0  0  0  0  0  0  0  0  0  0
   -1.5270   -0.2800   -3.8541 H   0  0  0  0  0  0  0  0  0  0  0  0
  1  2  1  0
  2  3  2  0
  3  4  1  0
  4  5  2  0
  5  6  1  0
  5  7  1  0
  7  8  2  0
  8  9  1  0
  9 10  2  0
 10 11  1  0
 11 12  2  0
 12 13  1  0
 13 14  2  0
  6  1  2  0
 14  9  1  0
 14  4  1  0
  1 15  1  0
  2 16  1  0
  6 17  1  0
  7 18  1  0
  8 19  1  0
 10 20  1  0
 11 21  1  0
 12 22  1  0
M  END
$$$$

     RDKit          3D

 22 24  0  0  0  0  0  0  0  0999 V2000
    0.5878   -3.2367    1.2111 C   0  0  0  0  0  0  0  0  0  0  0  0
    0.1608   -3.1881   -0.1320 C   0  0  0  0  0  0  0  0  0  0  0  0
   -0.1235   -2.0506   -0.7744 N   0  0  0  0  0  0  0  0  0  0  0  0
    0.0227   -0.9061   -0.1036 C   0  0  0  0  0  0  0  0  0  0  0  0
    0.4592   -0.8391    1.2553 C   0  0  0  0  0  0  0  0  0  0  0  0
    0.7394   -2.0601    1.8985 C   0  0  0  0  0  0  0  0  0  0  0  0
    0.6042    0.4213    1.9051 C   0  0  0  0  0  0  0  0  0  0  0  0
    0.3269    1.5760    1.2650 C   0  0  0  0  0  0  0  0  0  0  0  0
   -0.1210    1.5799   -0.0857 C   0  0  0  0  0  0  0  0  0  0  0  0
   -0.4204    2.7613   -0.7836 C   0  0  0  0  0  0  0  0  0  0  0  0
   -0.8512    2.6844   -2.0863 C   0  0  0  0  0  0  0  0  0  0  0  0
   -0.9760    1.4167   -2.6869 C   0  0  0  0  0  0  0  0  0  0  0  0
   -0.6951    0.2694   -2.0590 N   0  0  0  0  0  0  0  0  0  0  0  0
   -0.2843    0.3409   -0.7932 C   0  0  0  0  0  0  0  0  0  0  0  0
    0.7885   -4.1871    1.6735 H   0  0  0  0  0  0  0  0  0  0  0  0
    0.0501   -4.1001   -0.6918 H   0  0  0  0  0  0  0  0  0  0  0  0
    1.0614   -2.0408    2.9190 H   0  0  0  0  0  0  0  0  0  0  0  0
    0.9462    0.4218    2.9321 H   0  0  0  0  0  0  0  0  0  0  0  0
    0.4339    2.5309    1.7665 H   0  0  0  0  0  0  0  0  0  0  0  0
   -0.3059    3.6978   -0.2772 H   0  0  0  0  0  0  0  0  0  0  0  0
   -1.0902    3.5728   -2.6459 H   0  0  0  0  0  0  0  0  0  0  0  0
   -1.3137    1.3356   -3.7063 H   0  0  0  0  0  0  0  0  0  0  0  0
  1  2  1  0
  2  3  2  0
  3  4  1  0
  4  5  2  0
  5  6  1  0
  5  7  1  0
  7  8  2  0
  8  9  1  0
  9 10  2  0
 10 11  1  0
 11 12  2  0
 12 13  1  0
 13 14  2  0
  6  1  2  0
 14  9  1  0
 14  4  1  0
  1 15  1  0
  2 16  1  0
  6 17  1  0
  7 18  1  0
  8 19  1  0
 10 20  1  0
 11 21  1  0
 12 22  1  0
M  END
$$$$

     RDKit          3D

 22 24  0  0  0  0  0  0  0  0999 V2000
    1.6724   -2.9474   -0.9028 C   0  0  0  0  0  0  0  0  0  0  0  0
    2.5182   -1.9161   -0.4418 C   0  0  0  0  0  0  0  0  0  0  0  0
    2.0780   -0.7143   -0.0620 N   0  0  0  0  0  0  0  0  0  0  0  0
    0.7626   -0.4905   -0.1129 C   0  0  0  0  0  0  0  0  0  0  0  0
   -0.1836   -1.4652   -0.5558 C   0  0  0  0  0  0  0  0  0  0  0  0
    0.3223   -2.7164   -0.9570 C   0  0  0  0  0  0  0  0  0  0  0  0
   -1.5749   -1.1620   -0.5735 C   0  0  0  0  0  0  0  0  0  0  0  0
   -2.0357    0.0402   -0.1716 C   0  0  0  0  0  0  0  0  0  0  0  0
   -1.1469    1.0591    0.2706 C   0  0  0  0  0  0  0  0  0  0  0  0
   -1.5943    2.3231    0.6909 C   0  0  0  0  0  0  0  0  0  0  0  0
   -0.6771    3.2570    1.1102 C   0  0  0  0  0  0  0  0  0  0  0  0
    0.6895    2.9150    1.1065 C   0  0  0  0  0  0  0  0  0  0  0  0
    1.1537    1.7245    0.7089 N   0  0  0  0  0  0  0  0  0  0  0  0
    0.2683    0.8165    0.3041 C   0  0  0  0  0  0  0  0  0  0  0  0
    2.0915   -3.8925   -1.1966 H   0  0  0  0  0  0  0  0  0  0  0  0
    3.5806   -2.0794   -0.3894 H   0  0  0  0  0  0  0  0  0  0  0  0
   -0.3640   -3.4621   -1.3021 H   0  0  0  0  0  0  0  0  0  0  0  0
   -2.2527   -1.9356   -0.9147 H   0  0  0  0  0  0  0  0  0  0  0  0
   -3.0964    0.2592   -0.1738 H   0  0  0  0  0  0  0  0  0  0  0  0
   -2.6465    2.5233    0.6807 H   0  0  0  0  0  0  0  0  0  0  0  0
   -0.9877    4.2324    1.4456 H   0  0  0  0  0  0  0  0  0  0  0  0
    1.4225    3.6312    1.4365 H   0  0  0  0  0  0  0  0  0  0  0  0
  1  2  1  0
  2  3  2  0
  3  4  1  0
  4  5  2  0
  5  6  1  0
  5  7  1  0
  7  8  2  0
  8  9  1  0
  9 10  2  0
 10 11  1  0
 11 12  2  0
 12 13  1  0
 13 14  2  0
  6  1  2  0
 14  9  1  0
 14  4  1  0
  1 15  1  0
  2 16  1  0
  6 17  1  0
  7 18  1  0
  8 19  1  0
 10 20  1  0
 11 21  1  0
 12 22  1  0
M  END
$$$$
