
     RDKit          3D

 32 35  0  0  0  0  0  0  0  0999 V2000
   -1.7968    2.6780    4.6731 C   0  0  0  0  0  0  0  0  0  0  0  0
   -2.5650    1.5085    4.4716 C   0  0  0  0  0  0  0  0  0  0  0  0
   -2.3279    0.6810    3.3874 C   0  0  0  0  0  0  0  0  0  0  0  0
   -1.3026    1.0140    2.4581 C   0  0  0  0  0  0  0  0  0  0  0  0
   -1.0943    0.1814    1.3975 N   0  0  0  0  0  0  0  0  0  0  0  0
   -0.1408    0.4830    0.5524 C   0  0  0  0  0  0  0  0  0  0  0  0
    0.0908   -0.4520   -0.5870 C   0  0  0  0  0  0  0  0  0  0  0  0
   -0.7345   -1.5831   -0.7293 C   0  0  0  0  0  0  0  0  0  0  0  0
   -0.5220   -2.4463   -1.7576 C   0  0  0  0  0  0  0  0  0  0  0  0
    0.5234   -2.1824   -2.6727 C   0  0  0  0  0  0  0  0  0  0  0  0
    0.8211   -3.0234   -3.7799 C   0  0  0  0  0  0  0  0  0  0  0  0
    1.8511   -2.7155   -4.6301 C   0  0  0  0  0  0  0  0  0  0  0  0
    2.6227   -1.5503   -4.4193 C   0  0  0  0  0  0  0  0  0  0  0  0
    2.3598   -0.7049   -3.3552 C   0  0  0  0  0  0  0  0  0  0  0  0
    1.3012   -1.0136   -2.4549 C   0  0  0  0  0  0  0  0  0  0  0  0
    1.0695   -0.1669   -1.4124 N   0  0  0  0  0  0  0  0  0  0  0  0
    0.6662    1.6296    0.6715 C   0  0  0  0  0  0  0  0  0  0  0  0
    0.4757    2.4821    1.7144 C   0  0  0  0  0  0  0  0  0  0  0  0
   -0.5351    2.1926    2.6601 C   0  0  0  0  0  0  0  0  0  0  0  0
   -0.8059    3.0137    3.7883 C   0  0  0  0  0  0  0  0  0  0  0  0
   -1.9956    3.3118    5.5269 H   0  0  0  0  0  0  0  0  0  0  0  0
   -3.3443    1.2554    5.1677 H   0  0  0  0  0  0  0  0  0  0  0  0
   -2.8981   -0.2168    3.2233 H   0  0  0  0  0  0  0  0  0  0  0  0
   -1.5292   -1.7463   -0.0228 H   0  0  0  0  0  0  0  0  0  0  0  0
   -1.1264   -3.3298   -1.8931 H   0  0  0  0  0  0  0  0  0  0  0  0
    0.2141   -3.8984   -3.9205 H   0  0  0  0  0  0  0  0  0  0  0  0
    2.0726   -3.3635   -5.4677 H   0  0  0  0  0  0  0  0  0  0  0  0
    3.4272   -1.3116   -5.0919 H   0  0  0  0  0  0  0  0  0  0  0  0
    2.9321    0.1923   -3.1865 H   0  0  0  0  0  0  0  0  0  0  0  0
    1.4256    1.8132   -0.0685 H   0  0  0  0  0  0  0  0  0  0  0  0
    1.0746    3.3702    1.8379 H   0  0  0  0  0  0  0  0  0  0  0  0
   -0.2094    3.8982    3.9193 H   0  0  0  0  0  0  0  0  0  0  0  0
  1  2  2  0
  2  3  1  0
  3  4  2  0
  4  5  1  0
  5  6  2  0
  6  7  1  0
  7  8  1  0
  8  9  2  0
  9 10  1  0
 10 11  2  0
 11 12  1  0
 12 13  2  0
 13 14  1  0
 14 15  2  0
 15 16  1  0
  6 17  1  0
 17 18  2  0
 18 19  1  0
 19 20  2  0
 20  1  1  0
 19  4  1  0
 16  7  2  0
 15 10  1  0
  1 21  1  0
  2 22  1  0
  3 23  1  0
  8 24  1  0
  9 25  1  0
 11 26  1  0
 12 27  1  0
 13 28  1  0
 14 29  1  0
 17 30  1  0
 18 31  1  0
 20 32  1  0
M  END
$$$$

     RDKit          3D

 32 35  0  0  0  0  0  0  0  0999 V2000
    1.7783   -0.8193    5.3304 C   0  0  0  0  0  0  0  0  0  0  0  0
    0.5829   -1.5380    5.1058 C   0  0  0  0  0  0  0  0  0  0  0  0
   -0.0499   -1.4985    3.8752 C   0  0  0  0  0  0  0  0  0  0  0  0
    0.5041   -0.7190    2.8229 C   0  0  0  0  0  0  0  0  0  0  0  0
   -0.1484   -0.6950    1.6261 N   0  0  0  0  0  0  0  0  0  0  0  0
    0.3628    0.0181    0.6545 C   0  0  0  0  0  0  0  0  0  0  0  0
   -0.3687    0.0263   -0.6466 C   0  0  0  0  0  0  0  0  0  0  0  0
   -1.5812   -0.6801   -0.7560 C   0  0  0  0  0  0  0  0  0  0  0  0
   -2.2537   -0.6897   -1.9390 C   0  0  0  0  0  0  0  0  0  0  0  0
   -1.7163    0.0161   -3.0398 C   0  0  0  0  0  0  0  0  0  0  0  0
   -2.3355    0.0585   -4.3189 C   0  0  0  0  0  0  0  0  0  0  0  0
   -1.7625    0.7636   -5.3444 C   0  0  0  0  0  0  0  0  0  0  0  0
   -0.5526    1.4658   -5.1374 C   0  0  0  0  0  0  0  0  0  0  0  0
    0.0804    1.4464   -3.9063 C   0  0  0  0  0  0  0  0  0  0  0  0
   -0.4922    0.7097   -2.8323 C   0  0  0  0  0  0  0  0  0  0  0  0
    0.1622    0.7004   -1.6355 N   0  0  0  0  0  0  0  0  0  0  0  0
    1.5515    0.7599    0.7864 C   0  0  0  0  0  0  0  0  0  0  0  0
    2.2203    0.7578    1.9716 C   0  0  0  0  0  0  0  0  0  0  0  0
    1.7057    0.0028    3.0500 C   0  0  0  0  0  0  0  0  0  0  0  0
    2.3301   -0.0676    4.3256 C   0  0  0  0  0  0  0  0  0  0  0  0
    2.2580   -0.8620    6.2987 H   0  0  0  0  0  0  0  0  0  0  0  0
    0.1537   -2.1272    5.8947 H   0  0  0  0  0  0  0  0  0  0  0  0
   -0.9588   -2.0431    3.6838 H   0  0  0  0  0  0  0  0  0  0  0  0
   -1.9601   -1.1999    0.1041 H   0  0  0  0  0  0  0  0  0  0  0  0
   -3.1857   -1.2187   -2.0594 H   0  0  0  0  0  0  0  0  0  0  0  0
   -3.2585   -0.4778   -4.4509 H   0  0  0  0  0  0  0  0  0  0  0  0
   -2.2410    0.7879   -6.3153 H   0  0  0  0  0  0  0  0  0  0  0  0
   -0.1117    2.0216   -5.9453 H   0  0  0  0  0  0  0  0  0  0  0  0
    0.9958    1.9867   -3.7294 H   0  0  0  0  0  0  0  0  0  0  0  0
    1.9161    1.3154   -0.0566 H   0  0  0  0  0  0  0  0  0  0  0  0
    3.1333    1.3153    2.1132 H   0  0  0  0  0  0  0  0  0  0  0  0
    3.2416    0.4835    4.4701 H   0  0  0  0  0  0  0  0  0  0  0  0
  1  2  2  0
  2  3  1  0
  3  4  2  0
  4  5  1  0
  5  6  2  0
  6  7  1  0
  7  8  1  0
  8  9  2  0
  9 10  1  0
 10 11  2  0
 11 12  1  0
 12 13  2  0
 13 14  1  0
 14 15  2  0
 15 16  1  0
  6 17  1  0
 17 18  2  0
 18 19  1  0
 19 20  2  0
 20  1  1  0
 19  4  1  0
 16  7  2  0
 15 10  1  0
  1 21  1  0
  2 22  1  0
  3 23  1  0
  8 24  1  0
  9 25  1  0
 11 26  1  0
 12 27  1  0
 13 28  1  0
 14 29  1  0
 17 30  1  0
 18 31  1  0
 20 32  1  0
M  END
$$$$

     RDKit          3D

 32 35  0  0  0  0  0  0  0  0999 V2000
    4.1567    1.1829    3.6781 C   0  0  0  0  0  0  0  0  0  0  0  0
    4.5016    0.0450    2.9152 C   0  0  0  0  0  0  0  0  0  0  0  0
    3.6379   -0.4555    1.9568 C   0  0  0  0  0  0  0  0  0  0  0  0
    2.3836    0.1794    1.7383 C   0  0  0  0  0  0  0  0  0  0  0  0
    1.5538   -0.3390    0.7901 N   0  0  0  0  0  0  0  0  0  0  0  0
    0.4039    0.2504    0.5816 C   0  0  0  0  0  0  0  0  0  0  0  0
   -0.4789   -0.3255   -0.4743 C   0  0  0  0  0  0  0  0  0  0  0  0
   -0.1409   -1.5617   -1.0580 C   0  0  0  0  0  0  0  0  0  0  0  0
   -0.9316   -2.0869   -2.0328 C   0  0  0  0  0  0  0  0  0  0  0  0
   -2.0824   -1.3737   -2.4420 C   0  0  0  0  0  0  0  0  0  0  0  0
   -2.9643   -1.8277   -3.4591 C   0  0  0  0  0  0  0  0  0  0  0  0
   -4.0683   -1.0920   -3.8040 C   0  0  0  0  0  0  0  0  0  0  0  0
   -4.3414    0.1310   -3.1501 C   0  0  0  0  0  0  0  0  0  0  0  0
   -3.5018    0.6089   -2.1591 C   0  0  0  0  0  0  0  0  0  0  0  0
   -2.3497   -0.1393   -1.7899 C   0  0  0  0  0  0  0  0  0  0  0  0
   -1.5434    0.3601   -0.8098 N   0  0  0  0  0  0  0  0  0  0  0  0
   -0.0235    1.3863    1.2954 C   0  0  0  0  0  0  0  0  0  0  0  0
    0.7809    1.9210    2.2527 C   0  0  0  0  0  0  0  0  0  0  0  0
    2.0370    1.3222    2.5080 C   0  0  0  0  0  0  0  0  0  0  0  0
    2.9528    1.8081    3.4799 C   0  0  0  0  0  0  0  0  0  0  0  0
    4.8454    1.5654    4.4192 H   0  0  0  0  0  0  0  0  0  0  0  0
    5.4460   -0.4427    3.0754 H   0  0  0  0  0  0  0  0  0  0  0  0
    3.8844   -1.3214    1.3659 H   0  0  0  0  0  0  0  0  0  0  0  0
    0.7434   -2.0737   -0.7232 H   0  0  0  0  0  0  0  0  0  0  0  0
   -0.7072   -3.0341   -2.4994 H   0  0  0  0  0  0  0  0  0  0  0  0
   -2.7364   -2.7605   -3.9430 H   0  0  0  0  0  0  0  0  0  0  0  0
   -4.7323   -1.4488   -4.5799 H   0  0  0  0  0  0  0  0  0  0  0  0
   -5.2112    0.7010   -3.4214 H   0  0  0  0  0  0  0  0  0  0  0  0
   -3.6937    1.5345   -1.6419 H   0  0  0  0  0  0  0  0  0  0  0  0
   -0.9838    1.8139    1.0694 H   0  0  0  0  0  0  0  0  0  0  0  0
    0.4934    2.7957    2.8165 H   0  0  0  0  0  0  0  0  0  0  0  0
    2.6701    2.6770    4.0454 H   0  0  0  0  0  0  0  0  0  0  0  0
  1  2  2  0
  2  3  1  0
  3  4  2  0
  4  5  1  0
  5  6  2  0
  6  7  1  0
  7  8  1  0
  8  9  2  0
  9 10  1  0
 10 11  2  0
 11 12  1  0
 12 13  2  0
 13 14  1  0
 14 15  2  0
 15 16  1  0
  6 17  1  0
 17 18  2  0
 18 19  1  0
 19 20  2  0
 20  1  1  0
 19  4  1  0
 16  7  2  0
 15 10  1  0
  1 21  1  0
  2 22  1  0
  3 23  1  0
  8 24  1  0
  9 25  1  0
 11 26  1  0
 12 27  1  0
 13 28  1  0
 14 29  1  0
 17 30  1  0
 18 31  1  0
 20 32  1  0
M  END
$$$$

     RDKit          3D

 32 35  0  0  0  0  0  0  0  0999 V2000
    4.8752   -1.3792   -2.5653 C   0  0  0  0  0  0  0  0  0  0  0  0
    3.7847   -1.7013   -3.4049 C   0  0  0  0  0  0  0  0  0  0  0  0
    2.4823   -1.4606   -3.0028 C   0  0  0  0  0  0  0  0  0  0  0  0
    2.2341   -0.8849   -1.7258 C   0  0  0  0  0  0  0  0  0  0  0  0
    0.9402   -0.6626   -1.3574 N   0  0  0  0  0  0  0  0  0  0  0  0
    0.7114   -0.1344   -0.1824 C   0  0  0  0  0  0  0  0  0  0  0  0
   -0.7111    0.1031    0.2000 C   0  0  0  0  0  0  0  0  0  0  0  0
   -1.7363   -0.3339   -0.6607 C   0  0  0  0  0  0  0  0  0  0  0  0
   -3.0361   -0.1214   -0.3210 C   0  0  0  0  0  0  0  0  0  0  0  0
   -3.3293    0.5332    0.8976 C   0  0  0  0  0  0  0  0  0  0  0  0
   -4.6541    0.7989    1.3410 C   0  0  0  0  0  0  0  0  0  0  0  0
   -4.8748    1.4324    2.5360 C   0  0  0  0  0  0  0  0  0  0  0  0
   -3.7842    1.8274    3.3430 C   0  0  0  0  0  0  0  0  0  0  0  0
   -2.4791    1.5960    2.9391 C   0  0  0  0  0  0  0  0  0  0  0  0
   -2.2306    0.9387    1.7023 C   0  0  0  0  0  0  0  0  0  0  0  0
   -0.9361    0.7134    1.3355 N   0  0  0  0  0  0  0  0  0  0  0  0
    1.7340    0.2069    0.7234 C   0  0  0  0  0  0  0  0  0  0  0  0
    3.0339   -0.0138    0.3865 C   0  0  0  0  0  0  0  0  0  0  0  0
    3.3308   -0.5724   -0.8785 C   0  0  0  0  0  0  0  0  0  0  0  0
    4.6549   -0.8273   -1.3303 C   0  0  0  0  0  0  0  0  0  0  0  0
    5.8869   -1.5693   -2.8978 H   0  0  0  0  0  0  0  0  0  0  0  0
    3.9619   -2.1390   -4.3695 H   0  0  0  0  0  0  0  0  0  0  0  0
    1.6379   -1.6983   -3.6267 H   0  0  0  0  0  0  0  0  0  0  0  0
   -1.4682   -0.8325   -1.5742 H   0  0  0  0  0  0  0  0  0  0  0  0
   -3.8513   -0.4376   -0.9540 H   0  0  0  0  0  0  0  0  0  0  0  0
   -5.4676    0.4896    0.7096 H   0  0  0  0  0  0  0  0  0  0  0  0
   -5.8879    1.6291    2.8620 H   0  0  0  0  0  0  0  0  0  0  0  0
   -3.9643    2.3199    4.2806 H   0  0  0  0  0  0  0  0  0  0  0  0
   -1.6349    1.8936    3.5396 H   0  0  0  0  0  0  0  0  0  0  0  0
    1.4646    0.6377    1.6710 H   0  0  0  0  0  0  0  0  0  0  0  0
    3.8462    0.2217    1.0577 H   0  0  0  0  0  0  0  0  0  0  0  0
    5.4672   -0.5732   -0.6736 H   0  0  0  0  0  0  0  0  0  0  0  0
  1  2  2  0
  2  3  1  0
  3  4  2  0
  4  5  1  0
  5  6  2  0
  6  7  1  0
  7  8  1  0
  8  9  2  0
  9 10  1  0
 10 11  2  0
 11 12  1  0
 12 13  2  0
 13 14  1  0
 14 15  2  0
 15 16  1  0
  6 17  1  0
 17 18  2  0
 18 19  1  0
 19 20  2  0
 20  1  1  0
 19  4  1  0
 16  7  2  0
 15 10  1  0
  1 21  1  0
  2 22  1  0
  3 23  1  0
  8 24  1  0
  9 25  1  0
 11 26  1  0
 12 27  1  0
 13 28  1  0
 14 29  1  0
 17 30  1  0
 18 31  1  0
 20 32  1  0
M  END
$$$$

     RDKit          3D

 32 35  0  0  0  0  0  0  0  0999 V2000
    5.5921    0.9877   -0.0345 C   0  0  0  0  0  0  0  0  0  0  0  0
    4.9561    1.8036   -0.9966 C   0  0  0  0  0  0  0  0  0  0  0  0
    3.5850    1.7575   -1.1732 C   0  0  0  0  0  0  0  0  0  0  0  0
    2.8014    0.8736   -0.3803 C   0  0  0  0  0  0  0  0  0  0  0  0
    1.4512    0.8525   -0.5775 N   0  0  0  0  0  0  0  0  0  0  0  0
    0.7333    0.0272    0.1427 C   0  0  0  0  0  0  0  0  0  0  0  0
   -0.7389    0.0087   -0.0999 C   0  0  0  0  0  0  0  0  0  0  0  0
   -1.2928    0.8987   -1.0391 C   0  0  0  0  0  0  0  0  0  0  0  0
   -2.6349    0.8942   -1.2632 C   0  0  0  0  0  0  0  0  0  0  0  0
   -3.4484   -0.0219   -0.5568 C   0  0  0  0  0  0  0  0  0  0  0  0
   -4.8571   -0.1125   -0.7249 C   0  0  0  0  0  0  0  0  0  0  0  0
   -5.5861   -1.0256   -0.0078 C   0  0  0  0  0  0  0  0  0  0  0  0
   -4.9427   -1.8872    0.9095 C   0  0  0  0  0  0  0  0  0  0  0  0
   -3.5728   -1.8268    1.1035 C   0  0  0  0  0  0  0  0  0  0  0  0
   -2.8001   -0.8859    0.3684 C   0  0  0  0  0  0  0  0  0  0  0  0
   -1.4537   -0.8499    0.5809 N   0  0  0  0  0  0  0  0  0  0  0  0
    1.2823   -0.8271    1.1166 C   0  0  0  0  0  0  0  0  0  0  0  0
    2.6235   -0.8192    1.3402 C   0  0  0  0  0  0  0  0  0  0  0  0
    3.4426    0.0490    0.5819 C   0  0  0  0  0  0  0  0  0  0  0  0
    4.8532    0.1301    0.7387 C   0  0  0  0  0  0  0  0  0  0  0  0
    6.6647    1.0386    0.0895 H   0  0  0  0  0  0  0  0  0  0  0  0
    5.5418    2.4675   -1.6061 H   0  0  0  0  0  0  0  0  0  0  0  0
    3.0875    2.3722   -1.9033 H   0  0  0  0  0  0  0  0  0  0  0  0
   -0.6426    1.5737   -1.5630 H   0  0  0  0  0  0  0  0  0  0  0  0
   -3.0953    1.5694   -1.9675 H   0  0  0  0  0  0  0  0  0  0  0  0
   -5.3260    0.5539   -1.4270 H   0  0  0  0  0  0  0  0  0  0  0  0
   -6.6581   -1.0888   -0.1461 H   0  0  0  0  0  0  0  0  0  0  0  0
   -5.5203   -2.6019    1.4679 H   0  0  0  0  0  0  0  0  0  0  0  0
   -3.0676   -2.4782    1.7988 H   0  0  0  0  0  0  0  0  0  0  0  0
    0.6282   -1.4763    1.6711 H   0  0  0  0  0  0  0  0  0  0  0  0
    3.0819   -1.4608    2.0760 H   0  0  0  0  0  0  0  0  0  0  0  0
    5.3130   -0.4960    1.4809 H   0  0  0  0  0  0  0  0  0  0  0  0
  1  2  2  0
  2  3  1  0
  3  4  2  0
  4  5  1  0
  5  6  2  0
  6  7  1  0
  7  8  1  0
  8  9  2  0
  9 10  1  0
 10 11  2  0
 11 12  1  0
 12 13  2  0
 13 14  1  0
 14 15  2  0
 15 16  1  0
  6 17  1  0
 17 18  2  0
 18 19  1  0
 19 20  2  0
 20  1  1  0
 19  4  1  0
 16  7  2  0
 15 10  1  0
  1 21  1  0
  2 22  1  0
  3 23  1  0
  8 24  1  0
  9 25  1  0
 11 26  1  0
 12 27  1  0
 13 28  1  0
 14 29  1  0
 17 30  1  0
 18 31  1  0
 20 32  1  0
M  END
$$$$

     RDKit          3D

 32 35  0  0  0  0  0  0  0  0999 V2000
   -2.3143   -3.7901    3.5400 C   0  0  0  0  0  0  0  0  0  0  0  0
   -2.9706   -2.5456    3.6701 C   0  0  0  0  0  0  0  0  0  0  0  0
   -2.5749   -1.4503    2.9215 C   0  0  0  0  0  0  0  0  0  0  0  0
   -1.4953   -1.5779    2.0043 C   0  0  0  0  0  0  0  0  0  0  0  0
   -1.1289   -0.4814    1.2824 N   0  0  0  0  0  0  0  0  0  0  0  0
   -0.1460   -0.6003    0.4256 C   0  0  0  0  0  0  0  0  0  0  0  0
    0.2241    0.6112   -0.3635 C   0  0  0  0  0  0  0  0  0  0  0  0
   -0.3849    1.8428   -0.0588 C   0  0  0  0  0  0  0  0  0  0  0  0
   -0.0573    2.9530   -0.7745 C   0  0  0  0  0  0  0  0  0  0  0  0
    0.8939    2.8455   -1.8141 C   0  0  0  0  0  0  0  0  0  0  0  0
    1.3067    3.9456   -2.6143 C   0  0  0  0  0  0  0  0  0  0  0  0
    2.2306    3.7748   -3.6111 C   0  0  0  0  0  0  0  0  0  0  0  0
    2.7809    2.4970   -3.8572 C   0  0  0  0  0  0  0  0  0  0  0  0
    2.4039    1.4016   -3.0985 C   0  0  0  0  0  0  0  0  0  0  0  0
    1.4496    1.5601   -2.0560 C   0  0  0  0  0  0  0  0  0  0  0  0
    1.1086    0.4644   -1.3182 N   0  0  0  0  0  0  0  0  0  0  0  0
    0.5606   -1.8010    0.2258 C   0  0  0  0  0  0  0  0  0  0  0  0
    0.2313   -2.9056    0.9489 C   0  0  0  0  0  0  0  0  0  0  0  0
   -0.8338   -2.8282    1.8769 C   0  0  0  0  0  0  0  0  0  0  0  0
   -1.2668   -3.9276    2.6667 C   0  0  0  0  0  0  0  0  0  0  0  0
   -2.6384   -4.6353    4.1312 H   0  0  0  0  0  0  0  0  0  0  0  0
   -3.7916   -2.4437    4.3555 H   0  0  0  0  0  0  0  0  0  0  0  0
   -3.0615   -0.4934    3.0096 H   0  0  0  0  0  0  0  0  0  0  0  0
   -1.1083    1.8856    0.7335 H   0  0  0  0  0  0  0  0  0  0  0  0
   -0.5043    3.9130   -0.5691 H   0  0  0  0  0  0  0  0  0  0  0  0
    0.8701    4.9063   -2.4126 H   0  0  0  0  0  0  0  0  0  0  0  0
    2.5404    4.6207   -4.2090 H   0  0  0  0  0  0  0  0  0  0  0  0
    3.5005    2.3660   -4.6430 H   0  0  0  0  0  0  0  0  0  0  0  0
    2.8125    0.4206   -3.2756 H   0  0  0  0  0  0  0  0  0  0  0  0
    1.3510   -1.8261   -0.5034 H   0  0  0  0  0  0  0  0  0  0  0  0
    0.7589   -3.8402    0.8346 H   0  0  0  0  0  0  0  0  0  0  0  0
   -0.7468   -4.8614    2.5521 H   0  0  0  0  0  0  0  0  0  0  0  0
  1  2  2  0
  2  3  1  0
  3  4  2  0
  4  5  1  0
  5  6  2  0
  6  7  1  0
  7  8  1  0
  8  9  2  0
  9 10  1  0
 10 11  2  0
 11 12  1  0
 12 13  2  0
 13 14  1  0
 14 15  2  0
 15 16  1  0
  6 17  1  0
 17 18  2  0
 18 19  1  0
 19 20  2  0
 20  1  1  0
 19  4  1  0
 16  7  2  0
 15 10  1  0
  1 21  1  0
  2 22  1  0
  3 23  1  0
  8 24  1  0
  9 25  1  0
 11 26  1  0
 12 27  1  0
 13 28  1  0
 14 29  1  0
 17 30  1  0
 18 31  1  0
 20 32  1  0
M  END
$$$$

     RDKit          3D

 32 35  0  0  0  0  0  0  0  0999 V2000
   -2.0427   -3.1025   -4.2936 C   0  0  0  0  0  0  0  0  0  0  0  0
   -1.8675   -1.7626   -4.7084 C   0  0  0  0  0  0  0  0  0  0  0  0
   -1.3746   -0.8065   -3.8376 C   0  0  0  0  0  0  0  0  0  0  0  0
   -1.0424   -1.1736   -2.5035 C   0  0  0  0  0  0  0  0  0  0  0  0
   -0.5631   -0.2071   -1.6705 N   0  0  0  0  0  0  0  0  0  0  0  0
   -0.2630   -0.5419   -0.4410 C   0  0  0  0  0  0  0  0  0  0  0  0
    0.2612    0.5340    0.4502 C   0  0  0  0  0  0  0  0  0  0  0  0
    0.4103    1.8385   -0.0591 C   0  0  0  0  0  0  0  0  0  0  0  0
    0.8857    2.8261    0.7452 C   0  0  0  0  0  0  0  0  0  0  0  0
    1.2221    2.5188    2.0845 C   0  0  0  0  0  0  0  0  0  0  0  0
    1.7241    3.4753    3.0071 C   0  0  0  0  0  0  0  0  0  0  0  0
    2.0341    3.1113    4.2924 C   0  0  0  0  0  0  0  0  0  0  0  0
    1.8567    1.7750    4.7155 C   0  0  0  0  0  0  0  0  0  0  0  0
    1.3719    0.8139    3.8451 C   0  0  0  0  0  0  0  0  0  0  0  0
    1.0439    1.1747    2.5090 C   0  0  0  0  0  0  0  0  0  0  0  0
    0.5620    0.2037    1.6804 N   0  0  0  0  0  0  0  0  0  0  0  0
   -0.4056   -1.8507    0.0589 C   0  0  0  0  0  0  0  0  0  0  0  0
   -0.8754   -2.8369   -0.7528 C   0  0  0  0  0  0  0  0  0  0  0  0
   -1.2193   -2.5213   -2.0881 C   0  0  0  0  0  0  0  0  0  0  0  0
   -1.7232   -3.4760   -3.0143 C   0  0  0  0  0  0  0  0  0  0  0  0
   -2.4362   -3.8346   -4.9867 H   0  0  0  0  0  0  0  0  0  0  0  0
   -2.1169   -1.4760   -5.7133 H   0  0  0  0  0  0  0  0  0  0  0  0
   -1.2304    0.2178   -4.1375 H   0  0  0  0  0  0  0  0  0  0  0  0
    0.1430    2.0338   -1.0835 H   0  0  0  0  0  0  0  0  0  0  0  0
    1.0149    3.8370    0.3901 H   0  0  0  0  0  0  0  0  0  0  0  0
    1.8513    4.4875    2.6673 H   0  0  0  0  0  0  0  0  0  0  0  0
    2.4121    3.8507    4.9836 H   0  0  0  0  0  0  0  0  0  0  0  0
    2.1021    1.4958    5.7228 H   0  0  0  0  0  0  0  0  0  0  0  0
    1.2285   -0.2086    4.1484 H   0  0  0  0  0  0  0  0  0  0  0  0
   -0.1352   -2.0498    1.0802 H   0  0  0  0  0  0  0  0  0  0  0  0
   -0.9894   -3.8537   -0.4099 H   0  0  0  0  0  0  0  0  0  0  0  0
   -1.8390   -4.4922   -2.6811 H   0  0  0  0  0  0  0  0  0  0  0  0
  1  2  2  0
  2  3  1  0
  3  4  2  0
  4  5  1  0
  5  6  2  0
  6  7  1  0
  7  8  1  0
  8  9  2  0
  9 10  1  0
 10 11  2  0
 11 12  1  0
 12 13  2  0
 13 14  1  0
 14 15  2  0
 15 16  1  0
  6 17  1  0
 17 18  2  0
 18 19  1  0
 19 20  2  0
 20  1  1  0
 19  4  1  0
 16  7  2  0
 15 10  1  0
  1 21  1  0
  2 22  1  0
  3 23  1  0
  8 24  1  0
  9 25  1  0
 11 26  1  0
 12 27  1  0
 13 28  1  0
 14 29  1  0
 17 30  1  0
 18 31  1  0
 20 32  1  0
M  END
$$$$

     RDKit          3D

 32 35  0  0  0  0  0  0  0  0999 V2000
   -3.8716   -2.0216   -3.6273 C   0  0  0  0  0  0  0  0  0  0  0  0
   -2.9032   -3.0155   -3.3582 C   0  0  0  0  0  0  0  0  0  0  0  0
   -1.8456   -2.7645   -2.5007 C   0  0  0  0  0  0  0  0  0  0  0  0
   -1.7304   -1.4892   -1.8816 C   0  0  0  0  0  0  0  0  0  0  0  0
   -0.6827   -1.2767   -1.0348 N   0  0  0  0  0  0  0  0  0  0  0  0
   -0.5703   -0.1002   -0.4721 C   0  0  0  0  0  0  0  0  0  0  0  0
    0.5838    0.1117    0.4515 C   0  0  0  0  0  0  0  0  0  0  0  0
    1.5046   -0.9339    0.6522 C   0  0  0  0  0  0  0  0  0  0  0  0
    2.5579   -0.7517    1.4951 C   0  0  0  0  0  0  0  0  0  0  0  0
    2.7043    0.4916    2.1519 C   0  0  0  0  0  0  0  0  0  0  0  0
    3.7670    0.7802    3.0504 C   0  0  0  0  0  0  0  0  0  0  0  0
    3.8484    2.0044    3.6611 C   0  0  0  0  0  0  0  0  0  0  0  0
    2.8768    2.9961    3.4002 C   0  0  0  0  0  0  0  0  0  0  0  0
    1.8278    2.7530    2.5303 C   0  0  0  0  0  0  0  0  0  0  0  0
    1.7251    1.4869    1.8894 C   0  0  0  0  0  0  0  0  0  0  0  0
    0.6804    1.2779    1.0386 N   0  0  0  0  0  0  0  0  0  0  0  0
   -1.4732    0.9558   -0.7020 C   0  0  0  0  0  0  0  0  0  0  0  0
   -2.5305    0.7706   -1.5384 C   0  0  0  0  0  0  0  0  0  0  0  0
   -2.6974   -0.4861   -2.1652 C   0  0  0  0  0  0  0  0  0  0  0  0
   -3.7706   -0.7841   -3.0472 C   0  0  0  0  0  0  0  0  0  0  0  0
   -4.6936   -2.2363   -4.2967 H   0  0  0  0  0  0  0  0  0  0  0  0
   -2.9851   -3.9803   -3.8224 H   0  0  0  0  0  0  0  0  0  0  0  0
   -1.0940   -3.5076   -2.2910 H   0  0  0  0  0  0  0  0  0  0  0  0
    1.3560   -1.8658    0.1374 H   0  0  0  0  0  0  0  0  0  0  0  0
    3.2808   -1.5307    1.6808 H   0  0  0  0  0  0  0  0  0  0  0  0
    4.4951    0.0131    3.2377 H   0  0  0  0  0  0  0  0  0  0  0  0
    4.6591    2.2116    4.3455 H   0  0  0  0  0  0  0  0  0  0  0  0
    2.9477    3.9531    3.8843 H   0  0  0  0  0  0  0  0  0  0  0  0
    1.0811    3.4984    2.3179 H   0  0  0  0  0  0  0  0  0  0  0  0
   -1.3084    1.8976   -0.2110 H   0  0  0  0  0  0  0  0  0  0  0  0
   -3.2446    1.5549   -1.7335 H   0  0  0  0  0  0  0  0  0  0  0  0
   -4.4947   -0.0128   -3.2422 H   0  0  0  0  0  0  0  0  0  0  0  0
  1  2  2  0
  2  3  1  0
  3  4  2  0
  4  5  1  0
  5  6  2  0
  6  7  1  0
  7  8  1  0
  8  9  2  0
  9 10  1  0
 10 11  2  0
 11 12  1  0
 12 13  2  0
 13 14  1  0
 14 15  2  0
 15 16  1  0
  6 17  1  0
 17 18  2  0
 18 19  1  0
 19 20  2  0
 20  1  1  0
 19  4  1  0
 16  7  2  0
 15 10  1  0
  1 21  1  0
  2 22  1  0
  3 23  1  0
  8 24  1  0
  9 25  1  0
 11 26  1  0
 12 27  1  0
 13 28  1  0
 14 29  1  0
 17 30  1  0
 18 31  1  0
 20 32  1  0
M  END
$$$$

     RDKit          3D

 32 35  0  0  0  0  0  0  0  0999 V2000
    3.2775    4.2798   -1.7812 C   0  0  0  0  0  0  0  0  0  0  0  0
    1.9592    4.7447   -1.5750 C   0  0  0  0  0  0  0  0  0  0  0  0
    0.9670    3.8904   -1.1240 C   0  0  0  0  0  0  0  0  0  0  0  0
    1.2760    2.5240   -0.8717 C   0  0  0  0  0  0  0  0  0  0  0  0
    0.2768    1.7042   -0.4385 N   0  0  0  0  0  0  0  0  0  0  0  0
    0.5582    0.4463   -0.2095 C   0  0  0  0  0  0  0  0  0  0  0  0
   -0.5540   -0.4318    0.2532 C   0  0  0  0  0  0  0  0  0  0  0  0
   -1.8466    0.1072    0.4102 C   0  0  0  0  0  0  0  0  0  0  0  0
   -2.8638   -0.6940    0.8270 C   0  0  0  0  0  0  0  0  0  0  0  0
   -2.6024   -2.0595    1.0850 C   0  0  0  0  0  0  0  0  0  0  0  0
   -3.5989   -2.9782    1.5121 C   0  0  0  0  0  0  0  0  0  0  0  0
   -3.2825   -4.2921    1.7390 C   0  0  0  0  0  0  0  0  0  0  0  0
   -1.9572   -4.7470    1.5521 C   0  0  0  0  0  0  0  0  0  0  0  0
   -0.9572   -3.8796    1.1457 C   0  0  0  0  0  0  0  0  0  0  0  0
   -1.2682   -2.5134    0.9006 C   0  0  0  0  0  0  0  0  0  0  0  0
   -0.2686   -1.6860    0.4873 N   0  0  0  0  0  0  0  0  0  0  0  0
    1.8444   -0.1011   -0.3823 C   0  0  0  0  0  0  0  0  0  0  0  0
    2.8606    0.6941   -0.8144 C   0  0  0  0  0  0  0  0  0  0  0  0
    2.6022    2.0585   -1.0820 C   0  0  0  0  0  0  0  0  0  0  0  0
    3.5930    2.9675   -1.5421 C   0  0  0  0  0  0  0  0  0  0  0  0
    4.0413    4.9623   -2.1300 H   0  0  0  0  0  0  0  0  0  0  0  0
    1.7189    5.7747   -1.7668 H   0  0  0  0  0  0  0  0  0  0  0  0
   -0.0419    4.2256   -0.9608 H   0  0  0  0  0  0  0  0  0  0  0  0
   -2.0073    1.1452    0.1914 H   0  0  0  0  0  0  0  0  0  0  0  0
   -3.8693   -0.3222    0.9614 H   0  0  0  0  0  0  0  0  0  0  0  0
   -4.5995   -2.6077    1.6496 H   0  0  0  0  0  0  0  0  0  0  0  0
   -4.0506   -4.9838    2.0597 H   0  0  0  0  0  0  0  0  0  0  0  0
   -1.7181   -5.7798    1.7261 H   0  0  0  0  0  0  0  0  0  0  0  0
    0.0581   -4.2087    1.0045 H   0  0  0  0  0  0  0  0  0  0  0  0
    2.0059   -1.1417   -0.1652 H   0  0  0  0  0  0  0  0  0  0  0  0
    3.8583    0.3110   -0.9646 H   0  0  0  0  0  0  0  0  0  0  0  0
    4.5887    2.5911   -1.6967 H   0  0  0  0  0  0  0  0  0  0  0  0
  1  2  2  0
  2  3  1  0
  3  4  2  0
  4  5  1  0
  5  6  2  0
  6  7  1  0
  7  8  1  0
  8  9  2  0
  9 10  1  0
 10 11  2  0
 11 12  1  0
 12 13  2  0
 13 14  1  0
 14 15  2  0
 15 16  1  0
  6 17  1  0
 17 18  2  0
 18 19  1  0
 19 20  2  0
 20  1  1  0
 19  4  1  0
 16  7  2  0
 15 10  1  0
  1 21  1  0
  2 22  1  0
  3 23  1  0
  8 24  1  0
  9 25  1  0
 11 26  1  0
 12 27  1  0
 13 28  1  0
 14 29  1  0
 17 30  1  0
 18 31  1  0
 20 32  1  0
M  END
$$$$

     RDKit          3D

 32 35  0  0  0  0  0  0  0  0999 V2000
    5.3532    0.9571    1.6208 C   0  0  0  0  0  0  0  0  0  0  0  0
    4.4682    1.7470    2.3898 C   0  0  0  0  0  0  0  0  0  0  0  0
    3.1000    1.6744    2.1973 C   0  0  0  0  0  0  0  0  0  0  0  0
    2.5750    0.7986    1.2059 C   0  0  0  0  0  0  0  0  0  0  0  0
    1.2239    0.7509    1.0378 N   0  0  0  0  0  0  0  0  0  0  0  0
    0.7416   -0.0417    0.1138 C   0  0  0  0  0  0  0  0  0  0  0  0
   -0.7394   -0.0605   -0.0597 C   0  0  0  0  0  0  0  0  0  0  0  0
   -1.5466    0.6285    0.8659 C   0  0  0  0  0  0  0  0  0  0  0  0
   -2.8992    0.6157    0.7203 C   0  0  0  0  0  0  0  0  0  0  0  0
   -3.4689   -0.0830   -0.3696 C   0  0  0  0  0  0  0  0  0  0  0  0
   -4.8682   -0.1530   -0.6111 C   0  0  0  0  0  0  0  0  0  0  0  0
   -5.3558   -0.8527   -1.6847 C   0  0  0  0  0  0  0  0  0  0  0  0
   -4.4691   -1.5069   -2.5701 C   0  0  0  0  0  0  0  0  0  0  0  0
   -3.1000   -1.4607   -2.3692 C   0  0  0  0  0  0  0  0  0  0  0  0
   -2.5759   -0.7464   -1.2555 C   0  0  0  0  0  0  0  0  0  0  0  0
   -1.2241   -0.7236   -1.0782 N   0  0  0  0  0  0  0  0  0  0  0  0
    1.5493   -0.8526   -0.7066 C   0  0  0  0  0  0  0  0  0  0  0  0
    2.9008   -0.8316   -0.5542 C   0  0  0  0  0  0  0  0  0  0  0  0
    3.4673    0.0151    0.4261 C   0  0  0  0  0  0  0  0  0  0  0  0
    4.8652    0.1116    0.6585 C   0  0  0  0  0  0  0  0  0  0  0  0
    6.4186    1.0198    1.7917 H   0  0  0  0  0  0  0  0  0  0  0  0
    4.8566    2.4169    3.1347 H   0  0  0  0  0  0  0  0  0  0  0  0
    2.4123    2.2683    2.7729 H   0  0  0  0  0  0  0  0  0  0  0  0
   -1.0779    1.1559    1.6777 H   0  0  0  0  0  0  0  0  0  0  0  0
   -3.5484    1.1268    1.4144 H   0  0  0  0  0  0  0  0  0  0  0  0
   -5.5244    0.3550    0.0736 H   0  0  0  0  0  0  0  0  0  0  0  0
   -6.4224   -0.9014   -1.8568 H   0  0  0  0  0  0  0  0  0  0  0  0
   -4.8594   -2.0540   -3.4090 H   0  0  0  0  0  0  0  0  0  0  0  0
   -2.4089   -1.9544   -3.0316 H   0  0  0  0  0  0  0  0  0  0  0  0
    1.0839   -1.4826   -1.4427 H   0  0  0  0  0  0  0  0  0  0  0  0
    3.5543   -1.4395   -1.1608 H   0  0  0  0  0  0  0  0  0  0  0  0
    5.5183   -0.4969    0.0590 H   0  0  0  0  0  0  0  0  0  0  0  0
  1  2  2  0
  2  3  1  0
  3  4  2  0
  4  5  1  0
  5  6  2  0
  6  7  1  0
  7  8  1  0
  8  9  2  0
  9 10  1  0
 10 11  2  0
 11 12  1  0
 12 13  2  0
 13 14  1  0
 14 15  2  0
 15 16  1  0
  6 17  1  0
 17 18  2  0
 18 19  1  0
 19 20  2  0
 20  1  1  0
 19  4  1  0
 16  7  2  0
 15 10  1  0
  1 21  1  0
  2 22  1  0
  3 23  1  0
  8 24  1  0
  9 25  1  0
 11 26  1  0
 12 27  1  0
 13 28  1  0
 14 29  1  0
 17 30  1  0
 18 31  1  0
 20 32  1  0
M  END
$$$$

     RDKit          3D

 32 35  0  0  0  0  0  0  0  0999 V2000
    3.8843    2.4054    3.3732 C   0  0  0  0  0  0  0  0  0  0  0  0
    3.9777    0.9991    3.4660 C   0  0  0  0  0  0  0  0  0  0  0  0
    3.1307    0.1807    2.7386 C   0  0  0  0  0  0  0  0  0  0  0  0
    2.1539    0.7622    1.8836 C   0  0  0  0  0  0  0  0  0  0  0  0
    1.3308   -0.0705    1.1842 N   0  0  0  0  0  0  0  0  0  0  0  0
    0.4357    0.4631    0.3926 C   0  0  0  0  0  0  0  0  0  0  0  0
   -0.4517   -0.4646   -0.3695 C   0  0  0  0  0  0  0  0  0  0  0  0
   -0.3501   -1.8523   -0.1515 C   0  0  0  0  0  0  0  0  0  0  0  0
   -1.1580   -2.7041   -0.8380 C   0  0  0  0  0  0  0  0  0  0  0  0
   -2.0886   -2.1741   -1.7611 C   0  0  0  0  0  0  0  0  0  0  0  0
   -2.9798   -2.9791   -2.5206 C   0  0  0  0  0  0  0  0  0  0  0  0
   -3.8640   -2.4054   -3.3962 C   0  0  0  0  0  0  0  0  0  0  0  0
   -3.8952   -1.0014   -3.5574 C   0  0  0  0  0  0  0  0  0  0  0  0
   -3.0368   -0.1849   -2.8415 C   0  0  0  0  0  0  0  0  0  0  0  0
   -2.1174   -0.7625   -1.9213 C   0  0  0  0  0  0  0  0  0  0  0  0
   -1.2964    0.0684   -1.2182 N   0  0  0  0  0  0  0  0  0  0  0  0
    0.2768    1.8529    0.2332 C   0  0  0  0  0  0  0  0  0  0  0  0
    1.0761    2.7073    0.9269 C   0  0  0  0  0  0  0  0  0  0  0  0
    2.0615    2.1773    1.7912 C   0  0  0  0  0  0  0  0  0  0  0  0
    2.9486    2.9827    2.5542 C   0  0  0  0  0  0  0  0  0  0  0  0
    4.5523    3.0298    3.9494 H   0  0  0  0  0  0  0  0  0  0  0  0
    4.7142    0.5525    4.1073 H   0  0  0  0  0  0  0  0  0  0  0  0
    3.1829   -0.8923    2.8004 H   0  0  0  0  0  0  0  0  0  0  0  0
    0.3684   -2.2180    0.5592 H   0  0  0  0  0  0  0  0  0  0  0  0
   -1.1065   -3.7741   -0.7009 H   0  0  0  0  0  0  0  0  0  0  0  0
   -2.9349   -4.0442   -2.3827 H   0  0  0  0  0  0  0  0  0  0  0  0
   -4.5417   -3.0285   -3.9633 H   0  0  0  0  0  0  0  0  0  0  0  0
   -4.5909   -0.5573   -4.2451 H   0  0  0  0  0  0  0  0  0  0  0  0
   -3.0455    0.8860   -2.9528 H   0  0  0  0  0  0  0  0  0  0  0  0
   -0.4753    2.2188   -0.4413 H   0  0  0  0  0  0  0  0  0  0  0  0
    0.9782    3.7769    0.8319 H   0  0  0  0  0  0  0  0  0  0  0  0
    2.8605    4.0502    2.4699 H   0  0  0  0  0  0  0  0  0  0  0  0
  1  2  2  0
  2  3  1  0
  3  4  2  0
  4  5  1  0
  5  6  2  0
  6  7  1  0
  7  8  1  0
  8  9  2  0
  9 10  1  0
 10 11  2  0
 11 12  1  0
 12 13  2  0
 13 14  1  0
 14 15  2  0
 15 16  1  0
  6 17  1  0
 17 18  2  0
 18 19  1  0
 19 20  2  0
 20  1  1  0
 19  4  1  0
 16  7  2  0
 15 10  1  0
  1 21  1  0
  2 22  1  0
  3 23  1  0
  8 24  1  0
  9 25  1  0
 11 26  1  0
 12 27  1  0
 13 28  1  0
 14 29  1  0
 17 30  1  0
 18 31  1  0
 20 32  1  0
M  END
$$$$

     RDKit          3D

 32 35  0  0  0  0  0  0  0  0999 V2000
   -1.4131   -3.6706    4.0958 C   0  0  0  0  0  0  0  0  0  0  0  0
   -2.2574   -3.8561    2.9779 C   0  0  0  0  0  0  0  0  0  0  0  0
   -2.1098   -3.0823    1.8398 C   0  0  0  0  0  0  0  0  0  0  0  0
   -1.0930   -2.0883    1.7918 C   0  0  0  0  0  0  0  0  0  0  0  0
   -0.9739   -1.3436    0.6557 N   0  0  0  0  0  0  0  0  0  0  0  0
   -0.0418   -0.4245    0.6115 C   0  0  0  0  0  0  0  0  0  0  0  0
    0.0714    0.3841   -0.6379 C   0  0  0  0  0  0  0  0  0  0  0  0
   -0.7990    0.1211   -1.7123 C   0  0  0  0  0  0  0  0  0  0  0  0
   -0.7052    0.8587   -2.8514 C   0  0  0  0  0  0  0  0  0  0  0  0
    0.2618    1.8881   -2.9257 C   0  0  0  0  0  0  0  0  0  0  0  0
    0.4299    2.7221   -4.0635 C   0  0  0  0  0  0  0  0  0  0  0  0
    1.3814    3.7085   -4.0710 C   0  0  0  0  0  0  0  0  0  0  0  0
    2.2099    3.9072   -2.9444 C   0  0  0  0  0  0  0  0  0  0  0  0
    2.0797    3.1113   -1.8183 C   0  0  0  0  0  0  0  0  0  0  0  0
    1.0961    2.0831   -1.7918 C   0  0  0  0  0  0  0  0  0  0  0  0
    0.9860    1.3212   -0.6668 N   0  0  0  0  0  0  0  0  0  0  0  0
    0.8431   -0.1734    1.6772 C   0  0  0  0  0  0  0  0  0  0  0  0
    0.7481   -0.9033    2.8199 C   0  0  0  0  0  0  0  0  0  0  0  0
   -0.2464   -1.9033    2.9177 C   0  0  0  0  0  0  0  0  0  0  0  0
   -0.4300   -2.7158    4.0685 C   0  0  0  0  0  0  0  0  0  0  0  0
   -1.5439   -4.2830    4.9780 H   0  0  0  0  0  0  0  0  0  0  0  0
   -3.0254   -4.6071    3.0066 H   0  0  0  0  0  0  0  0  0  0  0  0
   -2.7462   -3.2046    0.9805 H   0  0  0  0  0  0  0  0  0  0  0  0
   -1.5319   -0.6582   -1.6099 H   0  0  0  0  0  0  0  0  0  0  0  0
   -1.3512    0.6845   -3.6968 H   0  0  0  0  0  0  0  0  0  0  0  0
   -0.2102    2.5543   -4.9110 H   0  0  0  0  0  0  0  0  0  0  0  0
    1.4961    4.3401   -4.9433 H   0  0  0  0  0  0  0  0  0  0  0  0
    2.9528    4.6847   -2.9552 H   0  0  0  0  0  0  0  0  0  0  0  0
    2.7001    3.2516   -0.9494 H   0  0  0  0  0  0  0  0  0  0  0  0
    1.5884    0.5908    1.5642 H   0  0  0  0  0  0  0  0  0  0  0  0
    1.4099   -0.7404    3.6565 H   0  0  0  0  0  0  0  0  0  0  0  0
    0.2235   -2.5572    4.9071 H   0  0  0  0  0  0  0  0  0  0  0  0
  1  2  2  0
  2  3  1  0
  3  4  2  0
  4  5  1  0
  5  6  2  0
  6  7  1  0
  7  8  1  0
  8  9  2  0
  9 10  1  0
 10 11  2  0
 11 12  1  0
 12 13  2  0
 13 14  1  0
 14 15  2  0
 15 16  1  0
  6 17  1  0
 17 18  2  0
 18 19  1  0
 19 20  2  0
 20  1  1  0
 19  4  1  0
 16  7  2  0
 15 10  1  0
  1 21  1  0
  2 22  1  0
  3 23  1  0
  8 24  1  0
  9 25  1  0
 11 26  1  0
 12 27  1  0
 13 28  1  0
 14 29  1  0
 17 30  1  0
 18 31  1  0
 20 32  1  0
M  END
$$$$
