
     RDKit          3D

 34 36  0  0  0  0  0  0  0  0999 V2000
   -0.7062    4.6358   -1.9623 C   0  0  0  0  0  0  0  0  0  0  0  0
   -0.6583    3.2748   -1.3296 C   0  0  0  0  0  0  0  0  0  0  0  0
   -1.8040    2.7453   -0.7166 C   0  0  0  0  0  0  0  0  0  0  0  0
   -1.8758    1.5478   -0.1405 N   0  0  0  0  0  0  0  0  0  0  0  0
   -0.7837    0.7841   -0.1301 C   0  0  0  0  0  0  0  0  0  0  0  0
    0.4384    1.2176   -0.7026 C   0  0  0  0  0  0  0  0  0  0  0  0
    1.5705    0.3633   -0.6438 C   0  0  0  0  0  0  0  0  0  0  0  0
    1.5134   -0.8587   -0.0561 C   0  0  0  0  0  0  0  0  0  0  0  0
    0.3177   -1.3434    0.5339 C   0  0  0  0  0  0  0  0  0  0  0  0
    0.2439   -2.6152    1.1674 C   0  0  0  0  0  0  0  0  0  0  0  0
    1.4578   -3.4809    1.2450 C   0  0  0  0  0  0  0  0  0  0  0  0
   -0.9832   -3.0094    1.6964 C   0  0  0  0  0  0  0  0  0  0  0  0
   -1.1544   -4.3392    2.3773 C   0  0  0  0  0  0  0  0  0  0  0  0
   -2.0618   -2.1326    1.5773 C   0  0  0  0  0  0  0  0  0  0  0  0
   -2.0070   -0.9277    0.9988 N   0  0  0  0  0  0  0  0  0  0  0  0
   -0.8523   -0.5286    0.4892 C   0  0  0  0  0  0  0  0  0  0  0  0
    0.4914    2.5054   -1.3286 C   0  0  0  0  0  0  0  0  0  0  0  0
    1.7675    2.9683   -1.9493 C   0  0  0  0  0  0  0  0  0  0  0  0
    0.0085    5.3073   -1.4946 H   0  0  0  0  0  0  0  0  0  0  0  0
   -0.4635    4.5824   -3.0218 H   0  0  0  0  0  0  0  0  0  0  0  0
   -1.7075    5.0660   -1.8615 H   0  0  0  0  0  0  0  0  0  0  0  0
   -2.7030    3.3424   -0.7039 H   0  0  0  0  0  0  0  0  0  0  0  0
    2.4986    0.6999   -1.0837 H   0  0  0  0  0  0  0  0  0  0  0  0
    2.3968   -1.4807   -0.0365 H   0  0  0  0  0  0  0  0  0  0  0  0
    1.2505   -4.4166    1.7553 H   0  0  0  0  0  0  0  0  0  0  0  0
    1.8385   -3.7157    0.2471 H   0  0  0  0  0  0  0  0  0  0  0  0
    2.2644   -2.9755    1.7830 H   0  0  0  0  0  0  0  0  0  0  0  0
   -0.8992   -5.1497    1.7025 H   0  0  0  0  0  0  0  0  0  0  0  0
   -2.1906   -4.4663    2.7037 H   0  0  0  0  0  0  0  0  0  0  0  0
   -0.5093   -4.4144    3.2479 H   0  0  0  0  0  0  0  0  0  0  0  0
   -3.0225   -2.4301    1.9704 H   0  0  0  0  0  0  0  0  0  0  0  0
    2.0979    2.2752   -2.7254 H   0  0  0  0  0  0  0  0  0  0  0  0
    1.6620    3.9511   -2.4022 H   0  0  0  0  0  0  0  0  0  0  0  0
    2.5643    3.0179   -1.2060 H   0  0  0  0  0  0  0  0  0  0  0  0
  1  2  1  0
  2  3  1  0
  3  4  2  0
  4  5  1  0
  5  6  2  0
  6  7  1  0
  7  8  2  0
  8  9  1  0
  9 10  2  0
 10 11  1  0
 10 12  1  0
 12 13  1  0
 12 14  2  0
 14 15  1  0
 15 16  2  0
  6 17  1  0
 17 18  1  0
 17  2  2  0
 16  5  1  0
 16  9  1  0
  1 19  1  0
  1 20  1  0
  1 21  1  0
  3 22  1  0
  7 23  1  0
  8 24  1  0
 11 25  1  0
 11 26  1  0
 11 27  1  0
 13 28  1  0
 13 29  1  0
 13 30  1  0
 14 31  1  0
 18 32  1  0
 18 33  1  0
 18 34  1  0
M  END
$$$$

     RDKit          3D

 34 36  0  0  0  0  0  0  0  0999 V2000
   -1.5001    4.5723   -1.6412 C   0  0  0  0  0  0  0  0  0  0  0  0
   -1.1596    3.1555   -1.2830 C   0  0  0  0  0  0  0  0  0  0  0  0
   -1.7697    2.0886   -1.9621 C   0  0  0  0  0  0  0  0  0  0  0  0
   -1.5488    0.8005   -1.7084 N   0  0  0  0  0  0  0  0  0  0  0  0
   -0.6823    0.4810   -0.7475 C   0  0  0  0  0  0  0  0  0  0  0  0
   -0.0045    1.4724    0.0069 C   0  0  0  0  0  0  0  0  0  0  0  0
    0.8889    1.0701    1.0348 C   0  0  0  0  0  0  0  0  0  0  0  0
    1.1160   -0.2394    1.3079 C   0  0  0  0  0  0  0  0  0  0  0  0
    0.4938   -1.2746    0.5632 C   0  0  0  0  0  0  0  0  0  0  0  0
    0.7540   -2.6513    0.8151 C   0  0  0  0  0  0  0  0  0  0  0  0
    1.7415   -3.0452    1.8638 C   0  0  0  0  0  0  0  0  0  0  0  0
    0.0625   -3.5941    0.0578 C   0  0  0  0  0  0  0  0  0  0  0  0
    0.2425   -5.0705    0.2831 C   0  0  0  0  0  0  0  0  0  0  0  0
   -0.8166   -3.1308   -0.9202 C   0  0  0  0  0  0  0  0  0  0  0  0
   -1.0606   -1.8399   -1.1829 N   0  0  0  0  0  0  0  0  0  0  0  0
   -0.4263   -0.9238   -0.4678 C   0  0  0  0  0  0  0  0  0  0  0  0
   -0.2515    2.8520   -0.2848 C   0  0  0  0  0  0  0  0  0  0  0  0
    0.4731    3.9069    0.4835 C   0  0  0  0  0  0  0  0  0  0  0  0
   -1.8839    5.1095   -0.7790 H   0  0  0  0  0  0  0  0  0  0  0  0
   -2.2597    4.5896   -2.4278 H   0  0  0  0  0  0  0  0  0  0  0  0
   -0.6257    5.1073   -1.9980 H   0  0  0  0  0  0  0  0  0  0  0  0
   -2.4735    2.3135   -2.7475 H   0  0  0  0  0  0  0  0  0  0  0  0
    1.3831    1.8344    1.6172 H   0  0  0  0  0  0  0  0  0  0  0  0
    1.7847   -0.5095    2.1149 H   0  0  0  0  0  0  0  0  0  0  0  0
    1.9029   -4.1193    1.8797 H   0  0  0  0  0  0  0  0  0  0  0  0
    2.7069   -2.5638    1.6865 H   0  0  0  0  0  0  0  0  0  0  0  0
    1.4060   -2.7350    2.8543 H   0  0  0  0  0  0  0  0  0  0  0  0
    1.2644   -5.3720    0.0818 H   0  0  0  0  0  0  0  0  0  0  0  0
   -0.4265   -5.6412   -0.3684 H   0  0  0  0  0  0  0  0  0  0  0  0
    0.0156   -5.3298    1.3147 H   0  0  0  0  0  0  0  0  0  0  0  0
   -1.3541   -3.8503   -1.5196 H   0  0  0  0  0  0  0  0  0  0  0  0
    0.2270    4.9040    0.1277 H   0  0  0  0  0  0  0  0  0  0  0  0
    0.2275    3.8567    1.5453 H   0  0  0  0  0  0  0  0  0  0  0  0
    1.5532    3.7761    0.3999 H   0  0  0  0  0  0  0  0  0  0  0  0
  1  2  1  0
  2  3  1  0
  3  4  2  0
  4  5  1  0
  5  6  2  0
  6  7  1  0
  7  8  2  0
  8  9  1  0
  9 10  2  0
 10 11  1  0
 10 12  1  0
 12 13  1  0
 12 14  2  0
 14 15  1  0
 15 16  2  0
  6 17  1  0
 17 18  1  0
 17  2  2  0
 16  5  1  0
 16  9  1  0
  1 19  1  0
  1 20  1  0
  1 21  1  0
  3 22  1  0
  7 23  1  0
  8 24  1  0
 11 25  1  0
 11 26  1  0
 11 27  1  0
 13 28  1  0
 13 29  1  0
 13 30  1  0
 14 31  1  0
 18 32  1  0
 18 33  1  0
 18 34  1  0
M  END
$$$$

     RDKit          3D

 34 36  0  0  0  0  0  0  0  0999 V2000
   -1.7563   -4.6515   -1.0657 C   0  0  0  0  0  0  0  0  0  0  0  0
   -1.3198   -3.2949   -0.5945 C   0  0  0  0  0  0  0  0  0  0  0  0
   -1.7840   -2.7881    0.6290 C   0  0  0  0  0  0  0  0  0  0  0  0
   -1.4614   -1.5978    1.1314 N   0  0  0  0  0  0  0  0  0  0  0  0
   -0.6463   -0.8129    0.4283 C   0  0  0  0  0  0  0  0  0  0  0  0
   -0.1061   -1.2199   -0.8188 C   0  0  0  0  0  0  0  0  0  0  0  0
    0.7588   -0.3392   -1.5189 C   0  0  0  0  0  0  0  0  0  0  0  0
    1.0797    0.8864   -1.0275 C   0  0  0  0  0  0  0  0  0  0  0  0
    0.5683    1.3463    0.2111 C   0  0  0  0  0  0  0  0  0  0  0  0
    0.8994    2.6286    0.7346 C   0  0  0  0  0  0  0  0  0  0  0  0
    1.8146    3.5324   -0.0242 C   0  0  0  0  0  0  0  0  0  0  0  0
    0.3475    2.9909    1.9594 C   0  0  0  0  0  0  0  0  0  0  0  0
    0.6416    4.3247    2.5878 C   0  0  0  0  0  0  0  0  0  0  0  0
   -0.5012    2.0823    2.5924 C   0  0  0  0  0  0  0  0  0  0  0  0
   -0.8239    0.8709    2.1163 N   0  0  0  0  0  0  0  0  0  0  0  0
   -0.3053    0.4987    0.9561 C   0  0  0  0  0  0  0  0  0  0  0  0
   -0.4607   -2.5066   -1.3382 C   0  0  0  0  0  0  0  0  0  0  0  0
    0.0962   -2.9428   -2.6529 C   0  0  0  0  0  0  0  0  0  0  0  0
   -0.9001   -5.2977   -1.2392 H   0  0  0  0  0  0  0  0  0  0  0  0
   -2.4002   -5.1260   -0.3204 H   0  0  0  0  0  0  0  0  0  0  0  0
   -2.3055   -4.5784   -2.0010 H   0  0  0  0  0  0  0  0  0  0  0  0
   -2.4510   -3.3942    1.2210 H   0  0  0  0  0  0  0  0  0  0  0  0
    1.1619   -0.6538   -2.4698 H   0  0  0  0  0  0  0  0  0  0  0  0
    1.7357    1.5350   -1.5939 H   0  0  0  0  0  0  0  0  0  0  0  0
    1.4256    3.7294   -1.0262 H   0  0  0  0  0  0  0  0  0  0  0  0
    1.9434    4.4842    0.4801 H   0  0  0  0  0  0  0  0  0  0  0  0
    2.8014    3.0803   -0.1436 H   0  0  0  0  0  0  0  0  0  0  0  0
    0.1498    4.3986    3.5636 H   0  0  0  0  0  0  0  0  0  0  0  0
    0.2809    5.1336    1.9575 H   0  0  0  0  0  0  0  0  0  0  0  0
    1.7069    4.4655    2.7268 H   0  0  0  0  0  0  0  0  0  0  0  0
   -0.9389    2.3573    3.5396 H   0  0  0  0  0  0  0  0  0  0  0  0
    1.1886   -2.9670   -2.6244 H   0  0  0  0  0  0  0  0  0  0  0  0
   -0.2548   -3.9309   -2.9334 H   0  0  0  0  0  0  0  0  0  0  0  0
   -0.1848   -2.2434   -3.4425 H   0  0  0  0  0  0  0  0  0  0  0  0
  1  2  1  0
  2  3  1  0
  3  4  2  0
  4  5  1  0
  5  6  2  0
  6  7  1  0
  7  8  2  0
  8  9  1  0
  9 10  2  0
 10 11  1  0
 10 12  1  0
 12 13  1  0
 12 14  2  0
 14 15  1  0
 15 16  2  0
  6 17  1  0
 17 18  1  0
 17  2  2  0
 16  5  1  0
 16  9  1  0
  1 19  1  0
  1 20  1  0
  1 21  1  0
  3 22  1  0
  7 23  1  0
  8 24  1  0
 11 25  1  0
 11 26  1  0
 11 27  1  0
 13 28  1  0
 13 29  1  0
 13 30  1  0
 14 31  1  0
 18 32  1  0
 18 33  1  0
 18 34  1  0
M  END
$$$$

     RDKit          3D

 34 36  0  0  0  0  0  0  0  0999 V2000
   -2.8593   -4.0710    1.0420 C   0  0  0  0  0  0  0  0  0  0  0  0
   -2.0053   -2.9311    0.5735 C   0  0  0  0  0  0  0  0  0  0  0  0
   -1.6105   -2.8549   -0.7707 C   0  0  0  0  0  0  0  0  0  0  0  0
   -0.8568   -1.8859   -1.2888 N   0  0  0  0  0  0  0  0  0  0  0  0
   -0.4413   -0.9062   -0.4865 C   0  0  0  0  0  0  0  0  0  0  0  0
   -0.7784   -0.8768    0.8917 C   0  0  0  0  0  0  0  0  0  0  0  0
   -0.3106    0.1933    1.6956 C   0  0  0  0  0  0  0  0  0  0  0  0
    0.4488    1.1933    1.1777 C   0  0  0  0  0  0  0  0  0  0  0  0
    0.8185    1.2149   -0.1912 C   0  0  0  0  0  0  0  0  0  0  0  0
    1.6107    2.2589   -0.7481 C   0  0  0  0  0  0  0  0  0  0  0  0
    2.0575    3.3899    0.1171 C   0  0  0  0  0  0  0  0  0  0  0  0
    1.9345    2.1879   -2.1018 C   0  0  0  0  0  0  0  0  0  0  0  0
    2.7727    3.2428   -2.7715 C   0  0  0  0  0  0  0  0  0  0  0  0
    1.4512    1.1019   -2.8325 C   0  0  0  0  0  0  0  0  0  0  0  0
    0.7000    0.1159   -2.3254 N   0  0  0  0  0  0  0  0  0  0  0  0
    0.3800    0.1590   -1.0419 C   0  0  0  0  0  0  0  0  0  0  0  0
   -1.5799   -1.9345    1.4307 C   0  0  0  0  0  0  0  0  0  0  0  0
   -1.9203   -1.9326    2.8837 C   0  0  0  0  0  0  0  0  0  0  0  0
   -2.3407   -4.6587    1.7938 H   0  0  0  0  0  0  0  0  0  0  0  0
   -3.7846   -3.7109    1.4877 H   0  0  0  0  0  0  0  0  0  0  0  0
   -3.1126   -4.7211    0.2002 H   0  0  0  0  0  0  0  0  0  0  0  0
   -1.9237   -3.6368   -1.4442 H   0  0  0  0  0  0  0  0  0  0  0  0
   -0.5701    0.2144    2.7443 H   0  0  0  0  0  0  0  0  0  0  0  0
    0.7821    1.9924    1.8243 H   0  0  0  0  0  0  0  0  0  0  0  0
    2.6486    3.0282    0.9606 H   0  0  0  0  0  0  0  0  0  0  0  0
    1.1993    3.9211    0.5337 H   0  0  0  0  0  0  0  0  0  0  0  0
    2.6612    4.1034   -0.4347 H   0  0  0  0  0  0  0  0  0  0  0  0
    2.8789    3.0197   -3.8384 H   0  0  0  0  0  0  0  0  0  0  0  0
    2.3155    4.2221   -2.6660 H   0  0  0  0  0  0  0  0  0  0  0  0
    3.7633    3.2912   -2.3337 H   0  0  0  0  0  0  0  0  0  0  0  0
    1.6831    1.0347   -3.8847 H   0  0  0  0  0  0  0  0  0  0  0  0
   -1.0130   -1.9311    3.4909 H   0  0  0  0  0  0  0  0  0  0  0  0
   -2.4840   -1.0364    3.1500 H   0  0  0  0  0  0  0  0  0  0  0  0
   -2.5146   -2.7970    3.1625 H   0  0  0  0  0  0  0  0  0  0  0  0
  1  2  1  0
  2  3  1  0
  3  4  2  0
  4  5  1  0
  5  6  2  0
  6  7  1  0
  7  8  2  0
  8  9  1  0
  9 10  2  0
 10 11  1  0
 10 12  1  0
 12 13  1  0
 12 14  2  0
 14 15  1  0
 15 16  2  0
  6 17  1  0
 17 18  1  0
 17  2  2  0
 16  5  1  0
 16  9  1  0
  1 19  1  0
  1 20  1  0
  1 21  1  0
  3 22  1  0
  7 23  1  0
  8 24  1  0
 11 25  1  0
 11 26  1  0
 11 27  1  0
 13 28  1  0
 13 29  1  0
 13 30  1  0
 14 31  1  0
 18 32  1  0
 18 33  1  0
 18 34  1  0
M  END
$$$$

     RDKit          3D

 34 36  0  0  0  0  0  0  0  0999 V2000
   -0.4490   -3.3714   -3.7837 C   0  0  0  0  0  0  0  0  0  0  0  0
   -0.4617   -2.4355   -2.6126 C   0  0  0  0  0  0  0  0  0  0  0  0
   -1.6079   -2.3290   -1.8111 C   0  0  0  0  0  0  0  0  0  0  0  0
   -1.7267   -1.5298   -0.7552 N   0  0  0  0  0  0  0  0  0  0  0  0
   -0.7002   -0.7445   -0.4369 C   0  0  0  0  0  0  0  0  0  0  0  0
    0.5160   -0.7697   -1.1683 C   0  0  0  0  0  0  0  0  0  0  0  0
    1.5744    0.0857   -0.7705 C   0  0  0  0  0  0  0  0  0  0  0  0
    1.4498    0.9359    0.2842 C   0  0  0  0  0  0  0  0  0  0  0  0
    0.2588    1.0019    1.0537 C   0  0  0  0  0  0  0  0  0  0  0  0
    0.1035    1.8750    2.1661 C   0  0  0  0  0  0  0  0  0  0  0  0
    1.1819    2.7941    2.6287 C   0  0  0  0  0  0  0  0  0  0  0  0
   -1.1215    1.8696    2.8404 C   0  0  0  0  0  0  0  0  0  0  0  0
   -1.3615    2.7736    4.0211 C   0  0  0  0  0  0  0  0  0  0  0  0
   -2.1159    1.0089    2.3883 C   0  0  0  0  0  0  0  0  0  0  0  0
   -1.9835    0.1700    1.3572 N   0  0  0  0  0  0  0  0  0  0  0  0
   -0.8374    0.1554    0.6954 C   0  0  0  0  0  0  0  0  0  0  0  0
    0.6318   -1.6531   -2.2898 C   0  0  0  0  0  0  0  0  0  0  0  0
    1.9073   -1.7044   -3.0655 C   0  0  0  0  0  0  0  0  0  0  0  0
    0.3164   -4.1343   -3.6648 H   0  0  0  0  0  0  0  0  0  0  0  0
   -0.2375   -2.8351   -4.7019 H   0  0  0  0  0  0  0  0  0  0  0  0
   -1.4197   -3.8657   -3.8812 H   0  0  0  0  0  0  0  0  0  0  0  0
   -2.4650   -2.9380   -2.0522 H   0  0  0  0  0  0  0  0  0  0  0  0
    2.5015    0.0644   -1.3271 H   0  0  0  0  0  0  0  0  0  0  0  0
    2.2796    1.5794    0.5359 H   0  0  0  0  0  0  0  0  0  0  0  0
    2.1324    2.5739    2.1558 H   0  0  0  0  0  0  0  0  0  0  0  0
    1.3123    2.7091    3.7091 H   0  0  0  0  0  0  0  0  0  0  0  0
    0.9191    3.8320    2.4227 H   0  0  0  0  0  0  0  0  0  0  0  0
   -0.7029    2.5182    4.8405 H   0  0  0  0  0  0  0  0  0  0  0  0
   -1.1750    3.8092    3.7551 H   0  0  0  0  0  0  0  0  0  0  0  0
   -2.3938    2.6848    4.3635 H   0  0  0  0  0  0  0  0  0  0  0  0
   -3.0707    1.0024    2.8941 H   0  0  0  0  0  0  0  0  0  0  0  0
    1.8566   -2.4162   -3.8834 H   0  0  0  0  0  0  0  0  0  0  0  0
    2.7427   -1.9921   -2.4236 H   0  0  0  0  0  0  0  0  0  0  0  0
    2.1460   -0.7245   -3.4841 H   0  0  0  0  0  0  0  0  0  0  0  0
  1  2  1  0
  2  3  1  0
  3  4  2  0
  4  5  1  0
  5  6  2  0
  6  7  1  0
  7  8  2  0
  8  9  1  0
  9 10  2  0
 10 11  1  0
 10 12  1  0
 12 13  1  0
 12 14  2  0
 14 15  1  0
 15 16  2  0
  6 17  1  0
 17 18  1  0
 17  2  2  0
 16  5  1  0
 16  9  1  0
  1 19  1  0
  1 20  1  0
  1 21  1  0
  3 22  1  0
  7 23  1  0
  8 24  1  0
 11 25  1  0
 11 26  1  0
 11 27  1  0
 13 28  1  0
 13 29  1  0
 13 30  1  0
 14 31  1  0
 18 32  1  0
 18 33  1  0
 18 34  1  0
M  END
$$$$

     RDKit          3D

 34 36  0  0  0  0  0  0  0  0999 V2000
   -0.9879   -0.3477    4.9711 C   0  0  0  0  0  0  0  0  0  0  0  0
   -0.5281   -0.2487    3.5456 C   0  0  0  0  0  0  0  0  0  0  0  0
    0.8431   -0.2582    3.2460 C   0  0  0  0  0  0  0  0  0  0  0  0
    1.3557   -0.1941    2.0172 N   0  0  0  0  0  0  0  0  0  0  0  0
    0.5138   -0.0903    0.9886 C   0  0  0  0  0  0  0  0  0  0  0  0
   -0.8927   -0.0417    1.1707 C   0  0  0  0  0  0  0  0  0  0  0  0
   -1.7329    0.1195    0.0392 C   0  0  0  0  0  0  0  0  0  0  0  0
   -1.2254    0.2076   -1.2171 C   0  0  0  0  0  0  0  0  0  0  0  0
    0.1709    0.1313   -1.4617 C   0  0  0  0  0  0  0  0  0  0  0  0
    0.7173    0.1988   -2.7747 C   0  0  0  0  0  0  0  0  0  0  0  0
   -0.1895    0.3562   -3.9495 C   0  0  0  0  0  0  0  0  0  0  0  0
    2.1004    0.1128   -2.9109 C   0  0  0  0  0  0  0  0  0  0  0  0
    2.7678    0.1779   -4.2580 C   0  0  0  0  0  0  0  0  0  0  0  0
    2.8678   -0.0297   -1.7542 C   0  0  0  0  0  0  0  0  0  0  0  0
    2.3730   -0.0981   -0.5110 N   0  0  0  0  0  0  0  0  0  0  0  0
    1.0597   -0.0221   -0.3567 C   0  0  0  0  0  0  0  0  0  0  0  0
   -1.4228   -0.1488    2.4960 C   0  0  0  0  0  0  0  0  0  0  0  0
   -2.9031   -0.1437    2.6987 C   0  0  0  0  0  0  0  0  0  0  0  0
   -1.5634   -1.2557    5.1310 H   0  0  0  0  0  0  0  0  0  0  0  0
   -1.6228    0.4924    5.2323 H   0  0  0  0  0  0  0  0  0  0  0  0
   -0.1279   -0.3621    5.6467 H   0  0  0  0  0  0  0  0  0  0  0  0
    1.5490   -0.3224    4.0593 H   0  0  0  0  0  0  0  0  0  0  0  0
   -2.8011    0.1793    0.1884 H   0  0  0  0  0  0  0  0  0  0  0  0
   -1.8979    0.3391   -2.0537 H   0  0  0  0  0  0  0  0  0  0  0  0
   -0.7905    1.2640   -3.8658 H   0  0  0  0  0  0  0  0  0  0  0  0
    0.3711    0.4055   -4.8777 H   0  0  0  0  0  0  0  0  0  0  0  0
   -0.8870   -0.4837   -4.0170 H   0  0  0  0  0  0  0  0  0  0  0  0
    2.5742    1.1282   -4.7451 H   0  0  0  0  0  0  0  0  0  0  0  0
    2.3985   -0.6100   -4.9073 H   0  0  0  0  0  0  0  0  0  0  0  0
    3.8499    0.0622   -4.1477 H   0  0  0  0  0  0  0  0  0  0  0  0
    3.9414   -0.0962   -1.8485 H   0  0  0  0  0  0  0  0  0  0  0  0
   -3.3330    0.8088    2.3773 H   0  0  0  0  0  0  0  0  0  0  0  0
   -3.3821   -0.9254    2.1080 H   0  0  0  0  0  0  0  0  0  0  0  0
   -3.1655   -0.3052    3.7404 H   0  0  0  0  0  0  0  0  0  0  0  0
  1  2  1  0
  2  3  1  0
  3  4  2  0
  4  5  1  0
  5  6  2  0
  6  7  1  0
  7  8  2  0
  8  9  1  0
  9 10  2  0
 10 11  1  0
 10 12  1  0
 12 13  1  0
 12 14  2  0
 14 15  1  0
 15 16  2  0
  6 17  1  0
 17 18  1  0
 17  2  2  0
 16  5  1  0
 16  9  1  0
  1 19  1  0
  1 20  1  0
  1 21  1  0
  3 22  1  0
  7 23  1  0
  8 24  1  0
 11 25  1  0
 11 26  1  0
 11 27  1  0
 13 28  1  0
 13 29  1  0
 13 30  1  0
 14 31  1  0
 18 32  1  0
 18 33  1  0
 18 34  1  0
M  END
$$$$

     RDKit          3D

 34 36  0  0  0  0  0  0  0  0999 V2000
   -1.0095   -4.1926    2.6900 C   0  0  0  0  0  0  0  0  0  0  0  0
   -0.8793   -2.9123    1.9191 C   0  0  0  0  0  0  0  0  0  0  0  0
   -2.0136   -2.1252    1.6589 C   0  0  0  0  0  0  0  0  0  0  0  0
   -2.0112   -0.9805    0.9771 N   0  0  0  0  0  0  0  0  0  0  0  0
   -0.8504   -0.5427    0.4880 C   0  0  0  0  0  0  0  0  0  0  0  0
    0.3600   -1.2561    0.6784 C   0  0  0  0  0  0  0  0  0  0  0  0
    1.5562   -0.7565    0.1010 C   0  0  0  0  0  0  0  0  0  0  0  0
    1.5749    0.3997   -0.6099 C   0  0  0  0  0  0  0  0  0  0  0  0
    0.3986    1.1668   -0.8146 C   0  0  0  0  0  0  0  0  0  0  0  0
    0.4053    2.3841   -1.5528 C   0  0  0  0  0  0  0  0  0  0  0  0
    1.6737    2.8782   -2.1655 C   0  0  0  0  0  0  0  0  0  0  0  0
   -0.7943    3.0819   -1.6691 C   0  0  0  0  0  0  0  0  0  0  0  0
   -0.8755    4.3843   -2.4177 C   0  0  0  0  0  0  0  0  0  0  0  0
   -1.9315    2.5353   -1.0729 C   0  0  0  0  0  0  0  0  0  0  0  0
   -1.9589    1.3837   -0.3891 N   0  0  0  0  0  0  0  0  0  0  0  0
   -0.8300    0.7081   -0.2535 C   0  0  0  0  0  0  0  0  0  0  0  0
    0.3398   -2.4636    1.4484 C   0  0  0  0  0  0  0  0  0  0  0  0
    1.6192   -3.1873    1.7116 C   0  0  0  0  0  0  0  0  0  0  0  0
   -2.0652   -4.4316    2.8472 H   0  0  0  0  0  0  0  0  0  0  0  0
   -0.5433   -5.0195    2.1598 H   0  0  0  0  0  0  0  0  0  0  0  0
   -0.5288   -4.1170    3.6615 H   0  0  0  0  0  0  0  0  0  0  0  0
   -2.9685   -2.4581    2.0357 H   0  0  0  0  0  0  0  0  0  0  0  0
    2.4689   -1.3190    0.2344 H   0  0  0  0  0  0  0  0  0  0  0  0
    2.5070    0.7526   -1.0303 H   0  0  0  0  0  0  0  0  0  0  0  0
    2.1041    2.1205   -2.8265 H   0  0  0  0  0  0  0  0  0  0  0  0
    1.5143    3.7801   -2.7451 H   0  0  0  0  0  0  0  0  0  0  0  0
    2.4222    3.0916   -1.4012 H   0  0  0  0  0  0  0  0  0  0  0  0
   -0.6135    4.2459   -3.4635 H   0  0  0  0  0  0  0  0  0  0  0  0
   -1.8911    4.7874   -2.3660 H   0  0  0  0  0  0  0  0  0  0  0  0
   -0.1918    5.1144   -1.9986 H   0  0  0  0  0  0  0  0  0  0  0  0
   -2.8703    3.0600   -1.1620 H   0  0  0  0  0  0  0  0  0  0  0  0
    2.3564   -2.5200    2.1646 H   0  0  0  0  0  0  0  0  0  0  0  0
    1.4754   -4.0309    2.3813 H   0  0  0  0  0  0  0  0  0  0  0  0
    2.0504   -3.5616    0.7813 H   0  0  0  0  0  0  0  0  0  0  0  0
  1  2  1  0
  2  3  1  0
  3  4  2  0
  4  5  1  0
  5  6  2  0
  6  7  1  0
  7  8  2  0
  8  9  1  0
  9 10  2  0
 10 11  1  0
 10 12  1  0
 12 13  1  0
 12 14  2  0
 14 15  1  0
 15 16  2  0
  6 17  1  0
 17 18  1  0
 17  2  2  0
 16  5  1  0
 16  9  1  0
  1 19  1  0
  1 20  1  0
  1 21  1  0
  3 22  1  0
  7 23  1  0
  8 24  1  0
 11 25  1  0
 11 26  1  0
 11 27  1  0
 13 28  1  0
 13 29  1  0
 13 30  1  0
 14 31  1  0
 18 32  1  0
 18 33  1  0
 18 34  1  0
M  END
$$$$

     RDKit          3D

 34 36  0  0  0  0  0  0  0  0999 V2000
    0.0128    1.5173    4.8519 C   0  0  0  0  0  0  0  0  0  0  0  0
   -0.1602    1.1030    3.4199 C   0  0  0  0  0  0  0  0  0  0  0  0
   -1.4251    1.1655    2.8162 C   0  0  0  0  0  0  0  0  0  0  0  0
   -1.6904    0.8015    1.5627 N   0  0  0  0  0  0  0  0  0  0  0  0
   -0.6887    0.3574    0.8052 C   0  0  0  0  0  0  0  0  0  0  0  0
    0.6375    0.2637    1.3015 C   0  0  0  0  0  0  0  0  0  0  0  0
    1.6668   -0.1922    0.4381 C   0  0  0  0  0  0  0  0  0  0  0  0
    1.4137   -0.5390   -0.8502 C   0  0  0  0  0  0  0  0  0  0  0  0
    0.1071   -0.4741   -1.3976 C   0  0  0  0  0  0  0  0  0  0  0  0
   -0.1678   -0.8281   -2.7480 C   0  0  0  0  0  0  0  0  0  0  0  0
    0.9441   -1.2580   -3.6476 C   0  0  0  0  0  0  0  0  0  0  0  0
   -1.4844   -0.7302   -3.1916 C   0  0  0  0  0  0  0  0  0  0  0  0
   -1.8654   -1.0810   -4.6020 C   0  0  0  0  0  0  0  0  0  0  0  0
   -2.4513   -0.2889   -2.2872 C   0  0  0  0  0  0  0  0  0  0  0  0
   -2.2109    0.0429   -1.0124 N   0  0  0  0  0  0  0  0  0  0  0  0
   -0.9660   -0.0301   -0.5693 C   0  0  0  0  0  0  0  0  0  0  0  0
    0.8981    0.6423    2.6589 C   0  0  0  0  0  0  0  0  0  0  0  0
    2.2858    0.5387    3.1986 C   0  0  0  0  0  0  0  0  0  0  0  0
   -0.9377    1.8777    5.2584 H   0  0  0  0  0  0  0  0  0  0  0  0
    0.3543    0.6803    5.4561 H   0  0  0  0  0  0  0  0  0  0  0  0
    0.7467    2.3124    4.9489 H   0  0  0  0  0  0  0  0  0  0  0  0
   -2.2564    1.5378    3.3951 H   0  0  0  0  0  0  0  0  0  0  0  0
    2.6762   -0.2585    0.8200 H   0  0  0  0  0  0  0  0  0  0  0  0
    2.2278   -0.8687   -1.4813 H   0  0  0  0  0  0  0  0  0  0  0  0
    1.4736   -2.1215   -3.2390 H   0  0  0  0  0  0  0  0  0  0  0  0
    1.6783   -0.4556   -3.7609 H   0  0  0  0  0  0  0  0  0  0  0  0
    0.5830   -1.5273   -4.6341 H   0  0  0  0  0  0  0  0  0  0  0  0
   -1.2920   -0.4964   -5.3133 H   0  0  0  0  0  0  0  0  0  0  0  0
   -1.6706   -2.1318   -4.8056 H   0  0  0  0  0  0  0  0  0  0  0  0
   -2.9274   -0.8864   -4.7674 H   0  0  0  0  0  0  0  0  0  0  0  0
   -3.4744   -0.1980   -2.6188 H   0  0  0  0  0  0  0  0  0  0  0  0
    2.6780   -0.4717    3.0717 H   0  0  0  0  0  0  0  0  0  0  0  0
    2.3247    0.7850    4.2552 H   0  0  0  0  0  0  0  0  0  0  0  0
    2.9605    1.2122    2.6681 H   0  0  0  0  0  0  0  0  0  0  0  0
  1  2  1  0
  2  3  1  0
  3  4  2  0
  4  5  1  0
  5  6  2  0
  6  7  1  0
  7  8  2  0
  8  9  1  0
  9 10  2  0
 10 11  1  0
 10 12  1  0
 12 13  1  0
 12 14  2  0
 14 15  1  0
 15 16  2  0
  6 17  1  0
 17 18  1  0
 17  2  2  0
 16  5  1  0
 16  9  1  0
  1 19  1  0
  1 20  1  0
  1 21  1  0
  3 22  1  0
  7 23  1  0
  8 24  1  0
 11 25  1  0
 11 26  1  0
 11 27  1  0
 13 28  1  0
 13 29  1  0
 13 30  1  0
 14 31  1  0
 18 32  1  0
 18 33  1  0
 18 34  1  0
M  END
$$$$

     RDKit          3D

 34 36  0  0  0  0  0  0  0  0999 V2000
    3.6030   -3.5305   -0.6398 C   0  0  0  0  0  0  0  0  0  0  0  0
    2.5761   -2.4370   -0.6149 C   0  0  0  0  0  0  0  0  0  0  0  0
    2.3230   -1.6744   -1.7654 C   0  0  0  0  0  0  0  0  0  0  0  0
    1.4317   -0.6874   -1.8479 N   0  0  0  0  0  0  0  0  0  0  0  0
    0.7051   -0.3982   -0.7695 C   0  0  0  0  0  0  0  0  0  0  0  0
    0.8781   -1.0936    0.4540 C   0  0  0  0  0  0  0  0  0  0  0  0
    0.0851   -0.7304    1.5725 C   0  0  0  0  0  0  0  0  0  0  0  0
   -0.8349    0.2676    1.4980 C   0  0  0  0  0  0  0  0  0  0  0  0
   -1.0570    0.9923    0.2984 C   0  0  0  0  0  0  0  0  0  0  0  0
   -2.0212    2.0366    0.2065 C   0  0  0  0  0  0  0  0  0  0  0  0
   -2.8329    2.4075    1.4025 C   0  0  0  0  0  0  0  0  0  0  0  0
   -2.1746    2.6766   -1.0215 C   0  0  0  0  0  0  0  0  0  0  0  0
   -3.1632    3.7926   -1.2115 C   0  0  0  0  0  0  0  0  0  0  0  0
   -1.3715    2.2610   -2.0821 C   0  0  0  0  0  0  0  0  0  0  0  0
   -0.4565    1.2846   -2.0122 N   0  0  0  0  0  0  0  0  0  0  0  0
   -0.2908    0.6598   -0.8574 C   0  0  0  0  0  0  0  0  0  0  0  0
    1.8501   -2.1445    0.5238 C   0  0  0  0  0  0  0  0  0  0  0  0
    2.0450   -2.8827    1.8055 C   0  0  0  0  0  0  0  0  0  0  0  0
    4.4029   -3.3330    0.0716 H   0  0  0  0  0  0  0  0  0  0  0  0
    4.0399   -3.6170   -1.6396 H   0  0  0  0  0  0  0  0  0  0  0  0
    3.1638   -4.4883   -0.3738 H   0  0  0  0  0  0  0  0  0  0  0  0
    2.8841   -1.8901   -2.6606 H   0  0  0  0  0  0  0  0  0  0  0  0
    0.2217   -1.2631    2.5021 H   0  0  0  0  0  0  0  0  0  0  0  0
   -1.4190    0.5167    2.3734 H   0  0  0  0  0  0  0  0  0  0  0  0
   -3.4709    3.2627    1.2007 H   0  0  0  0  0  0  0  0  0  0  0  0
   -2.1913    2.6573    2.2502 H   0  0  0  0  0  0  0  0  0  0  0  0
   -3.4667    1.5763    1.7177 H   0  0  0  0  0  0  0  0  0  0  0  0
   -2.9043    4.6493   -0.5956 H   0  0  0  0  0  0  0  0  0  0  0  0
   -4.1627    3.4728   -0.9349 H   0  0  0  0  0  0  0  0  0  0  0  0
   -3.1777    4.1111   -2.2582 H   0  0  0  0  0  0  0  0  0  0  0  0
   -1.4799    2.7480   -3.0383 H   0  0  0  0  0  0  0  0  0  0  0  0
    2.8210   -3.6373    1.7296 H   0  0  0  0  0  0  0  0  0  0  0  0
    2.3211   -2.1900    2.6041 H   0  0  0  0  0  0  0  0  0  0  0  0
    1.1232   -3.3751    2.1127 H   0  0  0  0  0  0  0  0  0  0  0  0
  1  2  1  0
  2  3  1  0
  3  4  2  0
  4  5  1  0
  5  6  2  0
  6  7  1  0
  7  8  2  0
  8  9  1  0
  9 10  2  0
 10 11  1  0
 10 12  1  0
 12 13  1  0
 12 14  2  0
 14 15  1  0
 15 16  2  0
  6 17  1  0
 17 18  1  0
 17  2  2  0
 16  5  1  0
 16  9  1  0
  1 19  1  0
  1 20  1  0
  1 21  1  0
  3 22  1  0
  7 23  1  0
  8 24  1  0
 11 25  1  0
 11 26  1  0
 11 27  1  0
 13 28  1  0
 13 29  1  0
 13 30  1  0
 14 31  1  0
 18 32  1  0
 18 33  1  0
 18 34  1  0
M  END
$$$$

     RDKit          3D

 34 36  0  0  0  0  0  0  0  0999 V2000
   -0.5226    4.9076    1.2073 C   0  0  0  0  0  0  0  0  0  0  0  0
   -0.5167    3.4333    0.9324 C   0  0  0  0  0  0  0  0  0  0  0  0
   -1.5405    2.6179    1.4404 C   0  0  0  0  0  0  0  0  0  0  0  0
   -1.6344    1.3048    1.2490 N   0  0  0  0  0  0  0  0  0  0  0  0
   -0.6841    0.7008    0.5356 C   0  0  0  0  0  0  0  0  0  0  0  0
    0.4007    1.4200   -0.0286 C   0  0  0  0  0  0  0  0  0  0  0  0
    1.3751    0.7168   -0.7836 C   0  0  0  0  0  0  0  0  0  0  0  0
    1.3060   -0.6273   -0.9646 C   0  0  0  0  0  0  0  0  0  0  0  0
    0.2482   -1.3981   -0.4173 C   0  0  0  0  0  0  0  0  0  0  0  0
    0.1620   -2.8080   -0.5940 C   0  0  0  0  0  0  0  0  0  0  0  0
    1.2192   -3.5318   -1.3614 C   0  0  0  0  0  0  0  0  0  0  0  0
   -0.9280   -3.4705   -0.0335 C   0  0  0  0  0  0  0  0  0  0  0  0
   -1.0970   -4.9595   -0.1634 C   0  0  0  0  0  0  0  0  0  0  0  0
   -1.8608   -2.7140    0.6761 C   0  0  0  0  0  0  0  0  0  0  0  0
   -1.7853   -1.3906    0.8700 N   0  0  0  0  0  0  0  0  0  0  0  0
   -0.7673   -0.7362    0.3344 C   0  0  0  0  0  0  0  0  0  0  0  0
    0.4797    2.8342    0.1851 C   0  0  0  0  0  0  0  0  0  0  0  0
    1.6221    3.6025   -0.3930 C   0  0  0  0  0  0  0  0  0  0  0  0
   -0.5775    5.4786    0.2847 H   0  0  0  0  0  0  0  0  0  0  0  0
   -1.3815    5.1757    1.8303 H   0  0  0  0  0  0  0  0  0  0  0  0
    0.3842    5.2113    1.7238 H   0  0  0  0  0  0  0  0  0  0  0  0
   -2.3156    3.0770    2.0338 H   0  0  0  0  0  0  0  0  0  0  0  0
    2.1910    1.2717   -1.2205 H   0  0  0  0  0  0  0  0  0  0  0  0
    2.0758   -1.1256   -1.5373 H   0  0  0  0  0  0  0  0  0  0  0  0
    2.2115   -3.3157   -0.9553 H   0  0  0  0  0  0  0  0  0  0  0  0
    1.0696   -4.6058   -1.3298 H   0  0  0  0  0  0  0  0  0  0  0  0
    1.2240   -3.2231   -2.4074 H   0  0  0  0  0  0  0  0  0  0  0  0
   -1.1052   -5.2642   -1.2050 H   0  0  0  0  0  0  0  0  0  0  0  0
   -2.0366   -5.2760    0.2995 H   0  0  0  0  0  0  0  0  0  0  0  0
   -0.2810   -5.4829    0.3268 H   0  0  0  0  0  0  0  0  0  0  0  0
   -2.7104   -3.2144    1.1140 H   0  0  0  0  0  0  0  0  0  0  0  0
    1.5655    4.6564   -0.1411 H   0  0  0  0  0  0  0  0  0  0  0  0
    1.6366    3.5195   -1.4800 H   0  0  0  0  0  0  0  0  0  0  0  0
    2.5734    3.2158   -0.0273 H   0  0  0  0  0  0  0  0  0  0  0  0
  1  2  1  0
  2  3  1  0
  3  4  2  0
  4  5  1  0
  5  6  2  0
  6  7  1  0
  7  8  2  0
  8  9  1  0
  9 10  2  0
 10 11  1  0
 10 12  1  0
 12 13  1  0
 12 14  2  0
 14 15  1  0
 15 16  2  0
  6 17  1  0
 17 18  1  0
 17  2  2  0
 16  5  1  0
 16  9  1  0
  1 19  1  0
  1 20  1  0
  1 21  1  0
  3 22  1  0
  7 23  1  0
  8 24  1  0
 11 25  1  0
 11 26  1  0
 11 27  1  0
 13 28  1  0
 13 29  1  0
 13 30  1  0
 14 31  1  0
 18 32  1  0
 18 33  1  0
 18 34  1  0
M  END
$$$$

     RDKit          3D

 34 36  0  0  0  0  0  0  0  0999 V2000
    4.7374   -0.8801   -1.6184 C   0  0  0  0  0  0  0  0  0  0  0  0
    3.3240   -0.5068   -1.2800 C   0  0  0  0  0  0  0  0  0  0  0  0
    2.6282    0.4286   -2.0634 C   0  0  0  0  0  0  0  0  0  0  0  0
    1.3777    0.8337   -1.8416 N   0  0  0  0  0  0  0  0  0  0  0  0
    0.7257    0.3215   -0.7974 C   0  0  0  0  0  0  0  0  0  0  0  0
    1.3217   -0.6381    0.0606 C   0  0  0  0  0  0  0  0  0  0  0  0
    0.5722   -1.1570    1.1472 C   0  0  0  0  0  0  0  0  0  0  0  0
   -0.7026   -0.7576    1.3881 C   0  0  0  0  0  0  0  0  0  0  0  0
   -1.3519    0.1947    0.5625 C   0  0  0  0  0  0  0  0  0  0  0  0
   -2.6930    0.6078    0.7974 C   0  0  0  0  0  0  0  0  0  0  0  0
   -3.4527    0.0250    1.9419 C   0  0  0  0  0  0  0  0  0  0  0  0
   -3.2482    1.5422   -0.0735 C   0  0  0  0  0  0  0  0  0  0  0  0
   -4.6620    2.0258    0.0942 C   0  0  0  0  0  0  0  0  0  0  0  0
   -2.4508    2.0231   -1.1134 C   0  0  0  0  0  0  0  0  0  0  0  0
   -1.1866    1.6477   -1.3484 N   0  0  0  0  0  0  0  0  0  0  0  0
   -0.6416    0.7505   -0.5434 C   0  0  0  0  0  0  0  0  0  0  0  0
    2.6668   -1.0590   -0.1969 C   0  0  0  0  0  0  0  0  0  0  0  0
    3.3039   -2.0680    0.7016 C   0  0  0  0  0  0  0  0  0  0  0  0
    4.8119   -1.9370   -1.8675 H   0  0  0  0  0  0  0  0  0  0  0  0
    5.0883   -0.2975   -2.4755 H   0  0  0  0  0  0  0  0  0  0  0  0
    5.3990   -0.6943   -0.7774 H   0  0  0  0  0  0  0  0  0  0  0  0
    3.1320    0.8625   -2.9126 H   0  0  0  0  0  0  0  0  0  0  0  0
    1.0313   -1.8918    1.7938 H   0  0  0  0  0  0  0  0  0  0  0  0
   -1.2383   -1.1728    2.2313 H   0  0  0  0  0  0  0  0  0  0  0  0
   -2.9481    0.2235    2.8918 H   0  0  0  0  0  0  0  0  0  0  0  0
   -3.5312   -1.0600    1.8473 H   0  0  0  0  0  0  0  0  0  0  0  0
   -4.4581    0.4344    1.9997 H   0  0  0  0  0  0  0  0  0  0  0  0
   -4.9206    2.7333   -0.6989 H   0  0  0  0  0  0  0  0  0  0  0  0
   -5.3618    1.1953    0.0581 H   0  0  0  0  0  0  0  0  0  0  0  0
   -4.7909    2.5221    1.0524 H   0  0  0  0  0  0  0  0  0  0  0  0
   -2.8642    2.7517   -1.7959 H   0  0  0  0  0  0  0  0  0  0  0  0
    2.7286   -2.9930    0.7100 H   0  0  0  0  0  0  0  0  0  0  0  0
    3.3361   -1.7022    1.7311 H   0  0  0  0  0  0  0  0  0  0  0  0
    4.3179   -2.3080    0.3948 H   0  0  0  0  0  0  0  0  0  0  0  0
  1  2  1  0
  2  3  1  0
  3  4  2  0
  4  5  1  0
  5  6  2  0
  6  7  1  0
  7  8  2  0
  8  9  1  0
  9 10  2  0
 10 11  1  0
 10 12  1  0
 12 13  1  0
 12 14  2  0
 14 15  1  0
 15 16  2  0
  6 17  1  0
 17 18  1  0
 17  2  2  0
 16  5  1  0
 16  9  1  0
  1 19  1  0
  1 20  1  0
  1 21  1  0
  3 22  1  0
  7 23  1  0
  8 24  1  0
 11 25  1  0
 11 26  1  0
 11 27  1  0
 13 28  1  0
 13 29  1  0
 13 30  1  0
 14 31  1  0
 18 32  1  0
 18 33  1  0
 18 34  1  0
M  END
$$$$

     RDKit          3D

 34 36  0  0  0  0  0  0  0  0999 V2000
   -2.0607   -2.8229   -3.6957 C   0  0  0  0  0  0  0  0  0  0  0  0
   -1.3147   -1.9917   -2.6927 C   0  0  0  0  0  0  0  0  0  0  0  0
    0.0316   -1.6669   -2.9214 C   0  0  0  0  0  0  0  0  0  0  0  0
    0.7895   -0.9431   -2.1017 N   0  0  0  0  0  0  0  0  0  0  0  0
    0.2474   -0.4755   -0.9787 C   0  0  0  0  0  0  0  0  0  0  0  0
   -1.1051   -0.7409   -0.6387 C   0  0  0  0  0  0  0  0  0  0  0  0
   -1.6215   -0.2181    0.5755 C   0  0  0  0  0  0  0  0  0  0  0  0
   -0.8570    0.5258    1.4150 C   0  0  0  0  0  0  0  0  0  0  0  0
    0.4956    0.8300    1.1198 C   0  0  0  0  0  0  0  0  0  0  0  0
    1.3037    1.6152    1.9892 C   0  0  0  0  0  0  0  0  0  0  0  0
    0.7249    2.1635    3.2516 C   0  0  0  0  0  0  0  0  0  0  0  0
    2.6307    1.8300    1.6258 C   0  0  0  0  0  0  0  0  0  0  0  0
    3.5602    2.6220    2.5010 C   0  0  0  0  0  0  0  0  0  0  0  0
    3.0817    1.2800    0.4253 C   0  0  0  0  0  0  0  0  0  0  0  0
    2.3285    0.5594   -0.4146 N   0  0  0  0  0  0  0  0  0  0  0  0
    1.0673    0.3275   -0.0852 C   0  0  0  0  0  0  0  0  0  0  0  0
   -1.9033   -1.5294   -1.5297 C   0  0  0  0  0  0  0  0  0  0  0  0
   -3.3226   -1.8255   -1.1744 C   0  0  0  0  0  0  0  0  0  0  0  0
   -2.9220   -2.2876   -4.0894 H   0  0  0  0  0  0  0  0  0  0  0  0
   -2.4251   -3.7406   -3.2415 H   0  0  0  0  0  0  0  0  0  0  0  0
   -1.4045   -3.0818   -4.5301 H   0  0  0  0  0  0  0  0  0  0  0  0
    0.5051   -2.0311   -3.8197 H   0  0  0  0  0  0  0  0  0  0  0  0
   -2.6502   -0.4223    0.8358 H   0  0  0  0  0  0  0  0  0  0  0  0
   -1.2833    0.8947    2.3375 H   0  0  0  0  0  0  0  0  0  0  0  0
    1.4387    2.7819    3.7877 H   0  0  0  0  0  0  0  0  0  0  0  0
    0.4092    1.3541    3.9173 H   0  0  0  0  0  0  0  0  0  0  0  0
   -0.1601    2.7712    3.0463 H   0  0  0  0  0  0  0  0  0  0  0  0
    3.2014    3.6390    2.6235 H   0  0  0  0  0  0  0  0  0  0  0  0
    3.6319    2.1780    3.4904 H   0  0  0  0  0  0  0  0  0  0  0  0
    4.5607    2.6538    2.0614 H   0  0  0  0  0  0  0  0  0  0  0  0
    4.1077    1.4413    0.1294 H   0  0  0  0  0  0  0  0  0  0  0  0
   -3.8087   -2.4255   -1.9383 H   0  0  0  0  0  0  0  0  0  0  0  0
   -3.3838   -2.3611   -0.2248 H   0  0  0  0  0  0  0  0  0  0  0  0
   -3.8933   -0.9032   -1.0557 H   0  0  0  0  0  0  0  0  0  0  0  0
  1  2  1  0
  2  3  1  0
  3  4  2  0
  4  5  1  0
  5  6  2  0
  6  7  1  0
  7  8  2  0
  8  9  1  0
  9 10  2  0
 10 11  1  0
 10 12  1  0
 12 13  1  0
 12 14  2  0
 14 15  1  0
 15 16  2  0
  6 17  1  0
 17 18  1  0
 17  2  2  0
 16  5  1  0
 16  9  1  0
  1 19  1  0
  1 20  1  0
  1 21  1  0
  3 22  1  0
  7 23  1  0
  8 24  1  0
 11 25  1  0
 11 26  1  0
 11 27  1  0
 13 28  1  0
 13 29  1  0
 13 30  1  0
 14 31  1  0
 18 32  1  0
 18 33  1  0
 18 34  1  0
M  END
$$$$
