
     RDKit          3D

 42 46  0  0  0  0  0  0  0  0999 V2000
    0.6030    5.2500    2.6090 C   0  0  0  0  0  0  0  0  0  0  0  0
    0.5887    4.4095    3.7250 C   0  0  0  0  0  0  0  0  0  0  0  0
    0.9275    3.0770    3.5958 C   0  0  0  0  0  0  0  0  0  0  0  0
    1.2677    2.5428    2.3548 C   0  0  0  0  0  0  0  0  0  0  0  0
    1.6573    1.1185    2.2488 C   0  0  0  0  0  0  0  0  0  0  0  0
    2.6138    0.5959    3.0773 C   0  0  0  0  0  0  0  0  0  0  0  0
    3.0481   -0.7214    2.8997 C   0  0  0  0  0  0  0  0  0  0  0  0
    2.5650   -1.5365    1.9657 N   0  0  0  0  0  0  0  0  0  0  0  0
    1.6035   -1.0663    1.1588 C   0  0  0  0  0  0  0  0  0  0  0  0
    1.0669    0.2369    1.2703 C   0  0  0  0  0  0  0  0  0  0  0  0
   -0.0409    0.6023    0.4663 C   0  0  0  0  0  0  0  0  0  0  0  0
   -0.5330   -0.2356   -0.4786 C   0  0  0  0  0  0  0  0  0  0  0  0
    0.0120   -1.5253   -0.6758 C   0  0  0  0  0  0  0  0  0  0  0  0
   -0.4641   -2.4290   -1.6819 C   0  0  0  0  0  0  0  0  0  0  0  0
   -1.6281   -2.1101   -2.5376 C   0  0  0  0  0  0  0  0  0  0  0  0
   -1.4980   -2.1135   -3.9284 C   0  0  0  0  0  0  0  0  0  0  0  0
   -2.5921   -1.8710   -4.7416 C   0  0  0  0  0  0  0  0  0  0  0  0
   -3.8486   -1.6276   -4.1829 C   0  0  0  0  0  0  0  0  0  0  0  0
   -3.9912   -1.6287   -2.7954 C   0  0  0  0  0  0  0  0  0  0  0  0
   -2.8881   -1.8546   -1.9832 C   0  0  0  0  0  0  0  0  0  0  0  0
    0.1890   -3.6269   -1.8161 C   0  0  0  0  0  0  0  0  0  0  0  0
    1.2411   -3.9496   -0.9645 C   0  0  0  0  0  0  0  0  0  0  0  0
    1.6920   -3.1356   -0.0022 N   0  0  0  0  0  0  0  0  0  0  0  0
    1.0987   -1.9546    0.1343 C   0  0  0  0  0  0  0  0  0  0  0  0
    1.2787    3.3872    1.2381 C   0  0  0  0  0  0  0  0  0  0  0  0
    0.9554    4.7292    1.3654 C   0  0  0  0  0  0  0  0  0  0  0  0
    0.3436    6.2944    2.7066 H   0  0  0  0  0  0  0  0  0  0  0  0
    0.3070    4.8032    4.6963 H   0  0  0  0  0  0  0  0  0  0  0  0
    0.9334    2.4290    4.4649 H   0  0  0  0  0  0  0  0  0  0  0  0
    3.0429    1.2006    3.8695 H   0  0  0  0  0  0  0  0  0  0  0  0
    3.8142   -1.1127    3.5458 H   0  0  0  0  0  0  0  0  0  0  0  0
   -0.5116    1.5492    0.6414 H   0  0  0  0  0  0  0  0  0  0  0  0
   -1.3534    0.0734   -1.0970 H   0  0  0  0  0  0  0  0  0  0  0  0
   -0.5264   -2.3173   -4.3625 H   0  0  0  0  0  0  0  0  0  0  0  0
   -2.4746   -1.8670   -5.8208 H   0  0  0  0  0  0  0  0  0  0  0  0
   -4.7040   -1.4420   -4.8192 H   0  0  0  0  0  0  0  0  0  0  0  0
   -4.9608   -1.4586   -2.3488 H   0  0  0  0  0  0  0  0  0  0  0  0
   -3.0020   -1.8486   -0.8977 H   0  0  0  0  0  0  0  0  0  0  0  0
   -0.1096   -4.3285   -2.5912 H   0  0  0  0  0  0  0  0  0  0  0  0
    1.7328   -4.9040   -1.0719 H   0  0  0  0  0  0  0  0  0  0  0  0
    1.5652    2.9888    0.2654 H   0  0  0  0  0  0  0  0  0  0  0  0
    0.9790    5.3771    0.4979 H   0  0  0  0  0  0  0  0  0  0  0  0
  1  2  2  0
  2  3  1  0
  3  4  2  0
  4  5  1  0
  5  6  2  0
  6  7  1  0
  7  8  2  0
  8  9  1  0
  9 10  2  0
 10 11  1  0
 11 12  2  0
 12 13  1  0
 13 14  2  0
 14 15  1  0
 15 16  2  0
 16 17  1  0
 17 18  2  0
 18 19  1  0
 19 20  2  0
 14 21  1  0
 21 22  2  0
 22 23  1  0
 23 24  2  0
  4 25  1  0
 25 26  2  0
 26  1  1  0
 10  5  1  0
 24 13  1  0
 24  9  1  0
 20 15  1  0
  1 27  1  0
  2 28  1  0
  3 29  1  0
  6 30  1  0
  7 31  1  0
 11 32  1  0
 12 33  1  0
 16 34  1  0
 17 35  1  0
 18 36  1  0
 19 37  1  0
 20 38  1  0
 21 39  1  0
 22 40  1  0
 25 41  1  0
 26 42  1  0
M  END
$$$$

     RDKit          3D

 42 46  0  0  0  0  0  0  0  0999 V2000
    3.3327    4.8166   -0.6196 C   0  0  0  0  0  0  0  0  0  0  0  0
    3.1270    3.8736    0.3850 C   0  0  0  0  0  0  0  0  0  0  0  0
    2.8113    2.5630    0.0626 C   0  0  0  0  0  0  0  0  0  0  0  0
    2.7046    2.1666   -1.2729 C   0  0  0  0  0  0  0  0  0  0  0  0
    2.4274    0.7555   -1.6267 C   0  0  0  0  0  0  0  0  0  0  0  0
    3.2699    0.0669   -2.4561 C   0  0  0  0  0  0  0  0  0  0  0  0
    3.0676   -1.3010   -2.6769 C   0  0  0  0  0  0  0  0  0  0  0  0
    2.0742   -1.9957   -2.1311 N   0  0  0  0  0  0  0  0  0  0  0  0
    1.1996   -1.3397   -1.3523 C   0  0  0  0  0  0  0  0  0  0  0  0
    1.2945    0.0449   -1.0828 C   0  0  0  0  0  0  0  0  0  0  0  0
    0.2661    0.6779   -0.3422 C   0  0  0  0  0  0  0  0  0  0  0  0
   -0.7642   -0.0301    0.1901 C   0  0  0  0  0  0  0  0  0  0  0  0
   -0.8527   -1.4354    0.0303 C   0  0  0  0  0  0  0  0  0  0  0  0
   -1.8893   -2.2350    0.6149 C   0  0  0  0  0  0  0  0  0  0  0  0
   -2.8989   -1.6750    1.5382 C   0  0  0  0  0  0  0  0  0  0  0  0
   -2.5234   -0.9566    2.6803 C   0  0  0  0  0  0  0  0  0  0  0  0
   -3.4809   -0.4826    3.5626 C   0  0  0  0  0  0  0  0  0  0  0  0
   -4.8351   -0.7110    3.3193 C   0  0  0  0  0  0  0  0  0  0  0  0
   -5.2154   -1.4316    2.1848 C   0  0  0  0  0  0  0  0  0  0  0  0
   -4.2548   -1.9097    1.3104 C   0  0  0  0  0  0  0  0  0  0  0  0
   -1.9084   -3.5734    0.3137 C   0  0  0  0  0  0  0  0  0  0  0  0
   -0.9178   -4.1232   -0.4961 C   0  0  0  0  0  0  0  0  0  0  0  0
    0.0835   -3.4105   -1.0235 N   0  0  0  0  0  0  0  0  0  0  0  0
    0.1161   -2.1052   -0.7702 C   0  0  0  0  0  0  0  0  0  0  0  0
    2.9171    3.1148   -2.2729 C   0  0  0  0  0  0  0  0  0  0  0  0
    3.2243    4.4282   -1.9579 C   0  0  0  0  0  0  0  0  0  0  0  0
    3.5722    5.8401   -0.3646 H   0  0  0  0  0  0  0  0  0  0  0  0
    3.2164    4.1684    1.4235 H   0  0  0  0  0  0  0  0  0  0  0  0
    2.6429    1.8262    0.8475 H   0  0  0  0  0  0  0  0  0  0  0  0
    4.1061    0.5704   -2.9319 H   0  0  0  0  0  0  0  0  0  0  0  0
    3.7511   -1.8354   -3.3115 H   0  0  0  0  0  0  0  0  0  0  0  0
    0.3067    1.7447   -0.2168 H   0  0  0  0  0  0  0  0  0  0  0  0
   -1.5310    0.4732    0.7470 H   0  0  0  0  0  0  0  0  0  0  0  0
   -1.4662   -0.7885    2.8755 H   0  0  0  0  0  0  0  0  0  0  0  0
   -3.1748    0.0591    4.4499 H   0  0  0  0  0  0  0  0  0  0  0  0
   -5.5834   -0.3316    3.9992 H   0  0  0  0  0  0  0  0  0  0  0  0
   -6.2648   -1.6163    1.9881 H   0  0  0  0  0  0  0  0  0  0  0  0
   -4.5490   -2.4831    0.4397 H   0  0  0  0  0  0  0  0  0  0  0  0
   -2.6939   -4.2110    0.7109 H   0  0  0  0  0  0  0  0  0  0  0  0
   -0.9375   -5.1778   -0.7096 H   0  0  0  0  0  0  0  0  0  0  0  0
    2.8504    2.8124   -3.3119 H   0  0  0  0  0  0  0  0  0  0  0  0
    3.3803    5.1570   -2.7460 H   0  0  0  0  0  0  0  0  0  0  0  0
  1  2  2  0
  2  3  1  0
  3  4  2  0
  4  5  1  0
  5  6  2  0
  6  7  1  0
  7  8  2  0
  8  9  1  0
  9 10  2  0
 10 11  1  0
 11 12  2  0
 12 13  1  0
 13 14  2  0
 14 15  1  0
 15 16  2  0
 16 17  1  0
 17 18  2  0
 18 19  1  0
 19 20  2  0
 14 21  1  0
 21 22  2  0
 22 23  1  0
 23 24  2  0
  4 25  1  0
 25 26  2  0
 26  1  1  0
 10  5  1  0
 24 13  1  0
 24  9  1  0
 20 15  1  0
  1 27  1  0
  2 28  1  0
  3 29  1  0
  6 30  1  0
  7 31  1  0
 11 32  1  0
 12 33  1  0
 16 34  1  0
 17 35  1  0
 18 36  1  0
 19 37  1  0
 20 38  1  0
 21 39  1  0
 22 40  1  0
 25 41  1  0
 26 42  1  0
M  END
$$$$

     RDKit          3D

 42 46  0  0  0  0  0  0  0  0999 V2000
    4.9103    1.5464   -2.7471 C   0  0  0  0  0  0  0  0  0  0  0  0
    4.8367    0.1632   -2.9133 C   0  0  0  0  0  0  0  0  0  0  0  0
    3.6095   -0.4777   -2.9034 C   0  0  0  0  0  0  0  0  0  0  0  0
    2.4320    0.2439   -2.7121 C   0  0  0  0  0  0  0  0  0  0  0  0
    1.1264   -0.4490   -2.7438 C   0  0  0  0  0  0  0  0  0  0  0  0
    0.7072   -1.1021   -3.8656 C   0  0  0  0  0  0  0  0  0  0  0  0
   -0.5541   -1.7054   -3.8903 C   0  0  0  0  0  0  0  0  0  0  0  0
   -1.3888   -1.7070   -2.8538 N   0  0  0  0  0  0  0  0  0  0  0  0
   -0.9965   -1.1059   -1.7261 C   0  0  0  0  0  0  0  0  0  0  0  0
    0.2534   -0.4536   -1.5959 C   0  0  0  0  0  0  0  0  0  0  0  0
    0.6129    0.1296   -0.3578 C   0  0  0  0  0  0  0  0  0  0  0  0
   -0.2268    0.0976    0.7076 C   0  0  0  0  0  0  0  0  0  0  0  0
   -1.4931   -0.5229    0.6253 C   0  0  0  0  0  0  0  0  0  0  0  0
   -2.4069   -0.5565    1.7280 C   0  0  0  0  0  0  0  0  0  0  0  0
   -2.0530    0.0483    3.0309 C   0  0  0  0  0  0  0  0  0  0  0  0
   -1.2518   -0.6445    3.9460 C   0  0  0  0  0  0  0  0  0  0  0  0
   -0.9512   -0.0906    5.1821 C   0  0  0  0  0  0  0  0  0  0  0  0
   -1.4271    1.1733    5.5181 C   0  0  0  0  0  0  0  0  0  0  0  0
   -2.2172    1.8726    4.6076 C   0  0  0  0  0  0  0  0  0  0  0  0
   -2.5294    1.3128    3.3723 C   0  0  0  0  0  0  0  0  0  0  0  0
   -3.6170   -1.1609    1.5335 C   0  0  0  0  0  0  0  0  0  0  0  0
   -3.9161   -1.7356    0.2975 C   0  0  0  0  0  0  0  0  0  0  0  0
   -3.0790   -1.7304   -0.7515 N   0  0  0  0  0  0  0  0  0  0  0  0
   -1.9001   -1.1333   -0.5948 C   0  0  0  0  0  0  0  0  0  0  0  0
    2.5102    1.6278   -2.5359 C   0  0  0  0  0  0  0  0  0  0  0  0
    3.7374    2.2777   -2.5640 C   0  0  0  0  0  0  0  0  0  0  0  0
    5.8692    2.0467   -2.7561 H   0  0  0  0  0  0  0  0  0  0  0  0
    5.7474   -0.4088   -3.0514 H   0  0  0  0  0  0  0  0  0  0  0  0
    3.5475   -1.5488   -3.0501 H   0  0  0  0  0  0  0  0  0  0  0  0
    1.3466   -1.1579   -4.7411 H   0  0  0  0  0  0  0  0  0  0  0  0
   -0.8805   -2.1995   -4.7892 H   0  0  0  0  0  0  0  0  0  0  0  0
    1.5772    0.5904   -0.2768 H   0  0  0  0  0  0  0  0  0  0  0  0
    0.0591    0.5506    1.6409 H   0  0  0  0  0  0  0  0  0  0  0  0
   -0.8822   -1.6275    3.6789 H   0  0  0  0  0  0  0  0  0  0  0  0
   -0.3439   -0.6407    5.8877 H   0  0  0  0  0  0  0  0  0  0  0  0
   -1.1837    1.6137    6.4747 H   0  0  0  0  0  0  0  0  0  0  0  0
   -2.5851    2.8576    4.8617 H   0  0  0  0  0  0  0  0  0  0  0  0
   -3.1533    1.8547    2.6738 H   0  0  0  0  0  0  0  0  0  0  0  0
   -4.3506   -1.1899    2.3368 H   0  0  0  0  0  0  0  0  0  0  0  0
   -4.8737   -2.2129    0.1550 H   0  0  0  0  0  0  0  0  0  0  0  0
    1.5946    2.2001   -2.3886 H   0  0  0  0  0  0  0  0  0  0  0  0
    3.7838    3.3544   -2.4496 H   0  0  0  0  0  0  0  0  0  0  0  0
  1  2  2  0
  2  3  1  0
  3  4  2  0
  4  5  1  0
  5  6  2  0
  6  7  1  0
  7  8  2  0
  8  9  1  0
  9 10  2  0
 10 11  1  0
 11 12  2  0
 12 13  1  0
 13 14  2  0
 14 15  1  0
 15 16  2  0
 16 17  1  0
 17 18  2  0
 18 19  1  0
 19 20  2  0
 14 21  1  0
 21 22  2  0
 22 23  1  0
 23 24  2  0
  4 25  1  0
 25 26  2  0
 26  1  1  0
 10  5  1  0
 24 13  1  0
 24  9  1  0
 20 15  1  0
  1 27  1  0
  2 28  1  0
  3 29  1  0
  6 30  1  0
  7 31  1  0
 11 32  1  0
 12 33  1  0
 16 34  1  0
 17 35  1  0
 18 36  1  0
 19 37  1  0
 20 38  1  0
 21 39  1  0
 22 40  1  0
 25 41  1  0
 26 42  1  0
M  END
$$$$

     RDKit          3D

 42 46  0  0  0  0  0  0  0  0999 V2000
    2.8833    2.0738    4.7253 C   0  0  0  0  0  0  0  0  0  0  0  0
    3.1588    2.0005    3.3609 C   0  0  0  0  0  0  0  0  0  0  0  0
    2.1286    2.0479    2.4341 C   0  0  0  0  0  0  0  0  0  0  0  0
    0.8023    2.1871    2.8509 C   0  0  0  0  0  0  0  0  0  0  0  0
   -0.3025    2.3217    1.8732 C   0  0  0  0  0  0  0  0  0  0  0  0
   -1.1464    3.3986    1.9272 C   0  0  0  0  0  0  0  0  0  0  0  0
   -2.1378    3.5595    0.9538 C   0  0  0  0  0  0  0  0  0  0  0  0
   -2.3274    2.7122   -0.0514 N   0  0  0  0  0  0  0  0  0  0  0  0
   -1.5463    1.6254   -0.1154 C   0  0  0  0  0  0  0  0  0  0  0  0
   -0.5238    1.3521    0.8258 C   0  0  0  0  0  0  0  0  0  0  0  0
    0.2011    0.1400    0.7300 C   0  0  0  0  0  0  0  0  0  0  0  0
   -0.0161   -0.7355   -0.2845 C   0  0  0  0  0  0  0  0  0  0  0  0
   -0.9692   -0.4680   -1.2985 C   0  0  0  0  0  0  0  0  0  0  0  0
   -1.1952   -1.3379   -2.4161 C   0  0  0  0  0  0  0  0  0  0  0  0
   -0.3508   -2.5249   -2.6674 C   0  0  0  0  0  0  0  0  0  0  0  0
    1.0403   -2.4145   -2.7923 C   0  0  0  0  0  0  0  0  0  0  0  0
    1.8151   -3.5301   -3.0635 C   0  0  0  0  0  0  0  0  0  0  0  0
    1.2159   -4.7806   -3.2139 C   0  0  0  0  0  0  0  0  0  0  0  0
   -0.1704   -4.8961   -3.0972 C   0  0  0  0  0  0  0  0  0  0  0  0
   -0.9433   -3.7769   -2.8360 C   0  0  0  0  0  0  0  0  0  0  0  0
   -2.2246   -1.0267   -3.2678 C   0  0  0  0  0  0  0  0  0  0  0  0
   -2.9717    0.1315   -3.0657 C   0  0  0  0  0  0  0  0  0  0  0  0
   -2.7489    0.9896   -2.0618 N   0  0  0  0  0  0  0  0  0  0  0  0
   -1.7752    0.7009   -1.2031 C   0  0  0  0  0  0  0  0  0  0  0  0
    0.5352    2.2526    4.2195 C   0  0  0  0  0  0  0  0  0  0  0  0
    1.5582    2.1951    5.1499 C   0  0  0  0  0  0  0  0  0  0  0  0
    3.6867    2.0368    5.4452 H   0  0  0  0  0  0  0  0  0  0  0  0
    4.1837    1.9134    3.0245 H   0  0  0  0  0  0  0  0  0  0  0  0
    2.3436    1.9878    1.3696 H   0  0  0  0  0  0  0  0  0  0  0  0
   -1.0481    4.1360    2.7200 H   0  0  0  0  0  0  0  0  0  0  0  0
   -2.7851    4.4161    1.0008 H   0  0  0  0  0  0  0  0  0  0  0  0
    0.9326   -0.0788    1.4851 H   0  0  0  0  0  0  0  0  0  0  0  0
    0.5334   -1.6546   -0.3262 H   0  0  0  0  0  0  0  0  0  0  0  0
    1.5035   -1.4344   -2.6876 H   0  0  0  0  0  0  0  0  0  0  0  0
    2.8896   -3.4319   -3.1637 H   0  0  0  0  0  0  0  0  0  0  0  0
    1.8181   -5.6550   -3.4203 H   0  0  0  0  0  0  0  0  0  0  0  0
   -0.6433   -5.8647   -3.2155 H   0  0  0  0  0  0  0  0  0  0  0  0
   -2.0198   -3.8628   -2.7633 H   0  0  0  0  0  0  0  0  0  0  0  0
   -2.4561   -1.6815   -4.1037 H   0  0  0  0  0  0  0  0  0  0  0  0
   -3.7742    0.3687   -3.7412 H   0  0  0  0  0  0  0  0  0  0  0  0
   -0.4902    2.3605    4.5515 H   0  0  0  0  0  0  0  0  0  0  0  0
    1.3365    2.2473    6.2090 H   0  0  0  0  0  0  0  0  0  0  0  0
  1  2  2  0
  2  3  1  0
  3  4  2  0
  4  5  1  0
  5  6  2  0
  6  7  1  0
  7  8  2  0
  8  9  1  0
  9 10  2  0
 10 11  1  0
 11 12  2  0
 12 13  1  0
 13 14  2  0
 14 15  1  0
 15 16  2  0
 16 17  1  0
 17 18  2  0
 18 19  1  0
 19 20  2  0
 14 21  1  0
 21 22  2  0
 22 23  1  0
 23 24  2  0
  4 25  1  0
 25 26  2  0
 26  1  1  0
 10  5  1  0
 24 13  1  0
 24  9  1  0
 20 15  1  0
  1 27  1  0
  2 28  1  0
  3 29  1  0
  6 30  1  0
  7 31  1  0
 11 32  1  0
 12 33  1  0
 16 34  1  0
 17 35  1  0
 18 36  1  0
 19 37  1  0
 20 38  1  0
 21 39  1  0
 22 40  1  0
 25 41  1  0
 26 42  1  0
M  END
$$$$

     RDKit          3D

 42 46  0  0  0  0  0  0  0  0999 V2000
   -2.5439   -1.9584   -4.9177 C   0  0  0  0  0  0  0  0  0  0  0  0
   -1.6514   -0.9671   -5.3273 C   0  0  0  0  0  0  0  0  0  0  0  0
   -0.5193   -0.6922   -4.5790 C   0  0  0  0  0  0  0  0  0  0  0  0
   -0.2574   -1.3965   -3.4063 C   0  0  0  0  0  0  0  0  0  0  0  0
    0.9725   -1.1234   -2.6319 C   0  0  0  0  0  0  0  0  0  0  0  0
    2.2061   -1.3832   -3.1546 C   0  0  0  0  0  0  0  0  0  0  0  0
    3.3531   -1.1776   -2.3790 C   0  0  0  0  0  0  0  0  0  0  0  0
    3.3258   -0.7090   -1.1346 N   0  0  0  0  0  0  0  0  0  0  0  0
    2.1309   -0.4111   -0.6026 C   0  0  0  0  0  0  0  0  0  0  0  0
    0.9092   -0.5945   -1.2907 C   0  0  0  0  0  0  0  0  0  0  0  0
   -0.3061   -0.2348   -0.6611 C   0  0  0  0  0  0  0  0  0  0  0  0
   -0.3243    0.2715    0.6003 C   0  0  0  0  0  0  0  0  0  0  0  0
    0.8709    0.4831    1.3284 C   0  0  0  0  0  0  0  0  0  0  0  0
    0.9018    1.0198    2.6564 C   0  0  0  0  0  0  0  0  0  0  0  0
   -0.3285    1.4312    3.3647 C   0  0  0  0  0  0  0  0  0  0  0  0
   -0.6953    0.7884    4.5464 C   0  0  0  0  0  0  0  0  0  0  0  0
   -1.8018    1.2092    5.2663 C   0  0  0  0  0  0  0  0  0  0  0  0
   -2.5741    2.2772    4.8088 C   0  0  0  0  0  0  0  0  0  0  0  0
   -2.2219    2.9180    3.6235 C   0  0  0  0  0  0  0  0  0  0  0  0
   -1.1152    2.4902    2.9008 C   0  0  0  0  0  0  0  0  0  0  0  0
    2.1228    1.1417    3.2666 C   0  0  0  0  0  0  0  0  0  0  0  0
    3.2823    0.7686    2.5930 C   0  0  0  0  0  0  0  0  0  0  0  0
    3.2876    0.2648    1.3539 N   0  0  0  0  0  0  0  0  0  0  0  0
    2.1158    0.1272    0.7388 C   0  0  0  0  0  0  0  0  0  0  0  0
   -1.1549   -2.3859   -2.9960 C   0  0  0  0  0  0  0  0  0  0  0  0
   -2.2826   -2.6744   -3.7508 C   0  0  0  0  0  0  0  0  0  0  0  0
   -3.4285   -2.1696   -5.4996 H   0  0  0  0  0  0  0  0  0  0  0  0
   -1.8503   -0.4078   -6.2333 H   0  0  0  0  0  0  0  0  0  0  0  0
    0.1797    0.0705   -4.8989 H   0  0  0  0  0  0  0  0  0  0  0  0
    2.3047   -1.7444   -4.1762 H   0  0  0  0  0  0  0  0  0  0  0  0
    4.3182   -1.4045   -2.8013 H   0  0  0  0  0  0  0  0  0  0  0  0
   -1.2207   -0.3639   -1.2104 H   0  0  0  0  0  0  0  0  0  0  0  0
   -1.2576    0.5136    1.0740 H   0  0  0  0  0  0  0  0  0  0  0  0
   -0.0977   -0.0454    4.8936 H   0  0  0  0  0  0  0  0  0  0  0  0
   -2.0732    0.7054    6.1863 H   0  0  0  0  0  0  0  0  0  0  0  0
   -3.4374    2.6070    5.3716 H   0  0  0  0  0  0  0  0  0  0  0  0
   -2.8117    3.7494    3.2622 H   0  0  0  0  0  0  0  0  0  0  0  0
   -0.8454    2.9875    1.9690 H   0  0  0  0  0  0  0  0  0  0  0  0
    2.1918    1.5313    4.2798 H   0  0  0  0  0  0  0  0  0  0  0  0
    4.2376    0.8808    3.0795 H   0  0  0  0  0  0  0  0  0  0  0  0
   -0.9518   -2.9368   -2.0788 H   0  0  0  0  0  0  0  0  0  0  0  0
   -2.9600   -3.4558   -3.4338 H   0  0  0  0  0  0  0  0  0  0  0  0
  1  2  2  0
  2  3  1  0
  3  4  2  0
  4  5  1  0
  5  6  2  0
  6  7  1  0
  7  8  2  0
  8  9  1  0
  9 10  2  0
 10 11  1  0
 11 12  2  0
 12 13  1  0
 13 14  2  0
 14 15  1  0
 15 16  2  0
 16 17  1  0
 17 18  2  0
 18 19  1  0
 19 20  2  0
 14 21  1  0
 21 22  2  0
 22 23  1  0
 23 24  2  0
  4 25  1  0
 25 26  2  0
 26  1  1  0
 10  5  1  0
 24 13  1  0
 24  9  1  0
 20 15  1  0
  1 27  1  0
  2 28  1  0
  3 29  1  0
  6 30  1  0
  7 31  1  0
 11 32  1  0
 12 33  1  0
 16 34  1  0
 17 35  1  0
 18 36  1  0
 19 37  1  0
 20 38  1  0
 21 39  1  0
 22 40  1  0
 25 41  1  0
 26 42  1  0
M  END
$$$$

     RDKit          3D

 42 46  0  0  0  0  0  0  0  0999 V2000
    3.4341    3.2607    3.3848 C   0  0  0  0  0  0  0  0  0  0  0  0
    3.1811    1.8904    3.4027 C   0  0  0  0  0  0  0  0  0  0  0  0
    2.9407    1.2069    2.2207 C   0  0  0  0  0  0  0  0  0  0  0  0
    2.9818    1.8773    0.9940 C   0  0  0  0  0  0  0  0  0  0  0  0
    2.7796    1.1484   -0.2771 C   0  0  0  0  0  0  0  0  0  0  0  0
    3.7684    1.0795   -1.2161 C   0  0  0  0  0  0  0  0  0  0  0  0
    3.5741    0.3073   -2.3691 C   0  0  0  0  0  0  0  0  0  0  0  0
    2.4573   -0.3726   -2.6229 N   0  0  0  0  0  0  0  0  0  0  0  0
    1.4535   -0.2979   -1.7377 C   0  0  0  0  0  0  0  0  0  0  0  0
    1.5357    0.4742   -0.5551 C   0  0  0  0  0  0  0  0  0  0  0  0
    0.3996    0.6007    0.2764 C   0  0  0  0  0  0  0  0  0  0  0  0
   -0.7604   -0.0420   -0.0089 C   0  0  0  0  0  0  0  0  0  0  0  0
   -0.8645   -0.9133   -1.1205 C   0  0  0  0  0  0  0  0  0  0  0  0
   -2.0417   -1.6756   -1.4098 C   0  0  0  0  0  0  0  0  0  0  0  0
   -3.2071   -1.6847   -0.4972 C   0  0  0  0  0  0  0  0  0  0  0  0
   -3.0724   -2.0646    0.8448 C   0  0  0  0  0  0  0  0  0  0  0  0
   -4.1778   -2.1075    1.6803 C   0  0  0  0  0  0  0  0  0  0  0  0
   -5.4386   -1.7670    1.1947 C   0  0  0  0  0  0  0  0  0  0  0  0
   -5.5810   -1.3901   -0.1424 C   0  0  0  0  0  0  0  0  0  0  0  0
   -4.4751   -1.3593   -0.9773 C   0  0  0  0  0  0  0  0  0  0  0  0
   -2.0468   -2.4368   -2.5515 C   0  0  0  0  0  0  0  0  0  0  0  0
   -0.9122   -2.4856   -3.3596 C   0  0  0  0  0  0  0  0  0  0  0  0
    0.2151   -1.8062   -3.1001 N   0  0  0  0  0  0  0  0  0  0  0  0
    0.2394   -1.0395   -2.0134 C   0  0  0  0  0  0  0  0  0  0  0  0
    3.2490    3.2448    0.9812 C   0  0  0  0  0  0  0  0  0  0  0  0
    3.4651    3.9360    2.1623 C   0  0  0  0  0  0  0  0  0  0  0  0
    3.6026    3.7970    4.3076 H   0  0  0  0  0  0  0  0  0  0  0  0
    3.1725    1.3577    4.3476 H   0  0  0  0  0  0  0  0  0  0  0  0
    2.7195    0.1421    2.2288 H   0  0  0  0  0  0  0  0  0  0  0  0
    4.7010    1.6174   -1.0687 H   0  0  0  0  0  0  0  0  0  0  0  0
    4.3643    0.2432   -3.0970 H   0  0  0  0  0  0  0  0  0  0  0  0
    0.4701    1.2323    1.1430 H   0  0  0  0  0  0  0  0  0  0  0  0
   -1.6244    0.1136    0.6082 H   0  0  0  0  0  0  0  0  0  0  0  0
   -2.0888   -2.3438    1.2197 H   0  0  0  0  0  0  0  0  0  0  0  0
   -4.0658   -2.4102    2.7165 H   0  0  0  0  0  0  0  0  0  0  0  0
   -6.3004   -1.7931    1.8476 H   0  0  0  0  0  0  0  0  0  0  0  0
   -6.5595   -1.1181   -0.5249 H   0  0  0  0  0  0  0  0  0  0  0  0
   -4.5886   -1.0844   -2.0189 H   0  0  0  0  0  0  0  0  0  0  0  0
   -2.9302   -3.0083   -2.8223 H   0  0  0  0  0  0  0  0  0  0  0  0
   -0.9211   -3.0986   -4.2447 H   0  0  0  0  0  0  0  0  0  0  0  0
    3.2943    3.7684    0.0337 H   0  0  0  0  0  0  0  0  0  0  0  0
    3.6577    5.0010    2.1406 H   0  0  0  0  0  0  0  0  0  0  0  0
  1  2  2  0
  2  3  1  0
  3  4  2  0
  4  5  1  0
  5  6  2  0
  6  7  1  0
  7  8  2  0
  8  9  1  0
  9 10  2  0
 10 11  1  0
 11 12  2  0
 12 13  1  0
 13 14  2  0
 14 15  1  0
 15 16  2  0
 16 17  1  0
 17 18  2  0
 18 19  1  0
 19 20  2  0
 14 21  1  0
 21 22  2  0
 22 23  1  0
 23 24  2  0
  4 25  1  0
 25 26  2  0
 26  1  1  0
 10  5  1  0
 24 13  1  0
 24  9  1  0
 20 15  1  0
  1 27  1  0
  2 28  1  0
  3 29  1  0
  6 30  1  0
  7 31  1  0
 11 32  1  0
 12 33  1  0
 16 34  1  0
 17 35  1  0
 18 36  1  0
 19 37  1  0
 20 38  1  0
 21 39  1  0
 22 40  1  0
 25 41  1  0
 26 42  1  0
M  END
$$$$

     RDKit          3D

 42 46  0  0  0  0  0  0  0  0999 V2000
    4.0776    2.5893   -3.3588 C   0  0  0  0  0  0  0  0  0  0  0  0
    4.2988    3.2083   -2.1243 C   0  0  0  0  0  0  0  0  0  0  0  0
    3.2840    3.2766   -1.1870 C   0  0  0  0  0  0  0  0  0  0  0  0
    2.0306    2.7198   -1.4532 C   0  0  0  0  0  0  0  0  0  0  0  0
    0.9470    2.8304   -0.4521 C   0  0  0  0  0  0  0  0  0  0  0  0
    0.5869    4.0437    0.0608 C   0  0  0  0  0  0  0  0  0  0  0  0
   -0.5023    4.1359    0.9336 C   0  0  0  0  0  0  0  0  0  0  0  0
   -1.2276    3.0878    1.3202 N   0  0  0  0  0  0  0  0  0  0  0  0
   -0.8832    1.8798    0.8549 C   0  0  0  0  0  0  0  0  0  0  0  0
    0.2210    1.6677   -0.0019 C   0  0  0  0  0  0  0  0  0  0  0  0
    0.5904    0.3448   -0.3429 C   0  0  0  0  0  0  0  0  0  0  0  0
   -0.1197   -0.7268    0.0937 C   0  0  0  0  0  0  0  0  0  0  0  0
   -1.2679   -0.5663    0.9089 C   0  0  0  0  0  0  0  0  0  0  0  0
   -2.0644   -1.6628    1.3800 C   0  0  0  0  0  0  0  0  0  0  0  0
   -1.6764   -3.0741    1.1593 C   0  0  0  0  0  0  0  0  0  0  0  0
   -0.4162   -3.5512    1.5433 C   0  0  0  0  0  0  0  0  0  0  0  0
   -0.0830   -4.8833    1.3707 C   0  0  0  0  0  0  0  0  0  0  0  0
   -0.9985   -5.7706    0.8029 C   0  0  0  0  0  0  0  0  0  0  0  0
   -2.2596   -5.3038    0.4198 C   0  0  0  0  0  0  0  0  0  0  0  0
   -2.5913   -3.9710    0.6055 C   0  0  0  0  0  0  0  0  0  0  0  0
   -3.2132   -1.3643    2.0694 C   0  0  0  0  0  0  0  0  0  0  0  0
   -3.5416   -0.0382    2.3417 C   0  0  0  0  0  0  0  0  0  0  0  0
   -2.8002    1.0038    1.9470 N   0  0  0  0  0  0  0  0  0  0  0  0
   -1.6883    0.7476    1.2613 C   0  0  0  0  0  0  0  0  0  0  0  0
    1.8124    2.1057   -2.6910 C   0  0  0  0  0  0  0  0  0  0  0  0
    2.8245    2.0465   -3.6389 C   0  0  0  0  0  0  0  0  0  0  0  0
    4.8683    2.5314   -4.0932 H   0  0  0  0  0  0  0  0  0  0  0  0
    5.2742    3.6295   -1.9050 H   0  0  0  0  0  0  0  0  0  0  0  0
    3.4472    3.7697   -0.2383 H   0  0  0  0  0  0  0  0  0  0  0  0
    1.1336    4.9401   -0.2126 H   0  0  0  0  0  0  0  0  0  0  0  0
   -0.7830    5.0983    1.3182 H   0  0  0  0  0  0  0  0  0  0  0  0
    1.4667    0.2042   -0.9453 H   0  0  0  0  0  0  0  0  0  0  0  0
    0.1766   -1.7174   -0.1903 H   0  0  0  0  0  0  0  0  0  0  0  0
    0.2954   -2.8538    1.9897 H   0  0  0  0  0  0  0  0  0  0  0  0
    0.8910   -5.2400    1.6850 H   0  0  0  0  0  0  0  0  0  0  0  0
   -0.7293   -6.8078    0.6608 H   0  0  0  0  0  0  0  0  0  0  0  0
   -2.9737   -5.9873   -0.0269 H   0  0  0  0  0  0  0  0  0  0  0  0
   -3.5776   -3.6183    0.3290 H   0  0  0  0  0  0  0  0  0  0  0  0
   -3.8663   -2.1597    2.4186 H   0  0  0  0  0  0  0  0  0  0  0  0
   -4.4368    0.1801    2.8990 H   0  0  0  0  0  0  0  0  0  0  0  0
    0.8361    1.6783   -2.9135 H   0  0  0  0  0  0  0  0  0  0  0  0
    2.6383    1.5774   -4.5980 H   0  0  0  0  0  0  0  0  0  0  0  0
  1  2  2  0
  2  3  1  0
  3  4  2  0
  4  5  1  0
  5  6  2  0
  6  7  1  0
  7  8  2  0
  8  9  1  0
  9 10  2  0
 10 11  1  0
 11 12  2  0
 12 13  1  0
 13 14  2  0
 14 15  1  0
 15 16  2  0
 16 17  1  0
 17 18  2  0
 18 19  1  0
 19 20  2  0
 14 21  1  0
 21 22  2  0
 22 23  1  0
 23 24  2  0
  4 25  1  0
 25 26  2  0
 26  1  1  0
 10  5  1  0
 24 13  1  0
 24  9  1  0
 20 15  1  0
  1 27  1  0
  2 28  1  0
  3 29  1  0
  6 30  1  0
  7 31  1  0
 11 32  1  0
 12 33  1  0
 16 34  1  0
 17 35  1  0
 18 36  1  0
 19 37  1  0
 20 38  1  0
 21 39  1  0
 22 40  1  0
 25 41  1  0
 26 42  1  0
M  END
$$$$

     RDKit          3D

 42 46  0  0  0  0  0  0  0  0999 V2000
   -4.0905    3.4519   -2.3117 C   0  0  0  0  0  0  0  0  0  0  0  0
   -2.8158    3.9184   -2.0019 C   0  0  0  0  0  0  0  0  0  0  0  0
   -1.7120    3.0897   -2.1480 C   0  0  0  0  0  0  0  0  0  0  0  0
   -1.8658    1.7847   -2.6234 C   0  0  0  0  0  0  0  0  0  0  0  0
   -0.6869    0.9128   -2.8175 C   0  0  0  0  0  0  0  0  0  0  0  0
   -0.1306    0.7257   -4.0485 C   0  0  0  0  0  0  0  0  0  0  0  0
    1.0088   -0.0802   -4.1833 C   0  0  0  0  0  0  0  0  0  0  0  0
    1.6035   -0.6893   -3.1594 N   0  0  0  0  0  0  0  0  0  0  0  0
    1.0709   -0.5398   -1.9386 C   0  0  0  0  0  0  0  0  0  0  0  0
   -0.0829    0.2412   -1.6946 C   0  0  0  0  0  0  0  0  0  0  0  0
   -0.6049    0.3298   -0.3831 C   0  0  0  0  0  0  0  0  0  0  0  0
   -0.0025   -0.2928    0.6603 C   0  0  0  0  0  0  0  0  0  0  0  0
    1.1801   -1.0523    0.4842 C   0  0  0  0  0  0  0  0  0  0  0  0
    1.8663   -1.7095    1.5582 C   0  0  0  0  0  0  0  0  0  0  0  0
    1.4662   -1.5498    2.9738 C   0  0  0  0  0  0  0  0  0  0  0  0
    1.3600   -0.2840    3.5613 C   0  0  0  0  0  0  0  0  0  0  0  0
    1.0442   -0.1510    4.9038 C   0  0  0  0  0  0  0  0  0  0  0  0
    0.8193   -1.2804    5.6881 C   0  0  0  0  0  0  0  0  0  0  0  0
    0.9206   -2.5455    5.1092 C   0  0  0  0  0  0  0  0  0  0  0  0
    1.2487   -2.6739    3.7693 C   0  0  0  0  0  0  0  0  0  0  0  0
    2.9433   -2.4932    1.2409 C   0  0  0  0  0  0  0  0  0  0  0  0
    3.3802   -2.5818   -0.0777 C   0  0  0  0  0  0  0  0  0  0  0  0
    2.7827   -1.9538   -1.0972 N   0  0  0  0  0  0  0  0  0  0  0  0
    1.7140   -1.2104   -0.8278 C   0  0  0  0  0  0  0  0  0  0  0  0
   -3.1443    1.3192   -2.9264 C   0  0  0  0  0  0  0  0  0  0  0  0
   -4.2513    2.1487   -2.7792 C   0  0  0  0  0  0  0  0  0  0  0  0
   -4.9506    4.0966   -2.1941 H   0  0  0  0  0  0  0  0  0  0  0  0
   -2.6854    4.9310   -1.6440 H   0  0  0  0  0  0  0  0  0  0  0  0
   -0.7208    3.4476   -1.9029 H   0  0  0  0  0  0  0  0  0  0  0  0
   -0.5655    1.1984   -4.9257 H   0  0  0  0  0  0  0  0  0  0  0  0
    1.4443   -0.2187   -5.1577 H   0  0  0  0  0  0  0  0  0  0  0  0
   -1.4965    0.9109   -0.2280 H   0  0  0  0  0  0  0  0  0  0  0  0
   -0.4247   -0.2264    1.6439 H   0  0  0  0  0  0  0  0  0  0  0  0
    1.5493    0.5983    2.9542 H   0  0  0  0  0  0  0  0  0  0  0  0
    0.9742    0.8342    5.3480 H   0  0  0  0  0  0  0  0  0  0  0  0
    0.5700   -1.1780    6.7369 H   0  0  0  0  0  0  0  0  0  0  0  0
    0.7354   -3.4284    5.7082 H   0  0  0  0  0  0  0  0  0  0  0  0
    1.3517   -3.6580    3.3309 H   0  0  0  0  0  0  0  0  0  0  0  0
    3.4633   -3.0460    2.0191 H   0  0  0  0  0  0  0  0  0  0  0  0
    4.2442   -3.1855   -0.3065 H   0  0  0  0  0  0  0  0  0  0  0  0
   -3.2728    0.3090   -3.2926 H   0  0  0  0  0  0  0  0  0  0  0  0
   -5.2374    1.7809   -3.0204 H   0  0  0  0  0  0  0  0  0  0  0  0
  1  2  2  0
  2  3  1  0
  3  4  2  0
  4  5  1  0
  5  6  2  0
  6  7  1  0
  7  8  2  0
  8  9  1  0
  9 10  2  0
 10 11  1  0
 11 12  2  0
 12 13  1  0
 13 14  2  0
 14 15  1  0
 15 16  2  0
 16 17  1  0
 17 18  2  0
 18 19  1  0
 19 20  2  0
 14 21  1  0
 21 22  2  0
 22 23  1  0
 23 24  2  0
  4 25  1  0
 25 26  2  0
 26  1  1  0
 10  5  1  0
 24 13  1  0
 24  9  1  0
 20 15  1  0
  1 27  1  0
  2 28  1  0
  3 29  1  0
  6 30  1  0
  7 31  1  0
 11 32  1  0
 12 33  1  0
 16 34  1  0
 17 35  1  0
 18 36  1  0
 19 37  1  0
 20 38  1  0
 21 39  1  0
 22 40  1  0
 25 41  1  0
 26 42  1  0
M  END
$$$$

     RDKit          3D

 42 46  0  0  0  0  0  0  0  0999 V2000
    2.3918   -0.2557   -5.3399 C   0  0  0  0  0  0  0  0  0  0  0  0
    1.2065    0.2524   -4.8089 C   0  0  0  0  0  0  0  0  0  0  0  0
    0.6073   -0.3617   -3.7211 C   0  0  0  0  0  0  0  0  0  0  0  0
    1.1747   -1.5037   -3.1425 C   0  0  0  0  0  0  0  0  0  0  0  0
    0.5185   -2.1876   -2.0045 C   0  0  0  0  0  0  0  0  0  0  0  0
    0.1956   -3.5137   -2.0726 C   0  0  0  0  0  0  0  0  0  0  0  0
   -0.4813   -4.1268   -1.0110 C   0  0  0  0  0  0  0  0  0  0  0  0
   -0.8403   -3.4886    0.0985 N   0  0  0  0  0  0  0  0  0  0  0  0
   -0.5233   -2.1911    0.2063 C   0  0  0  0  0  0  0  0  0  0  0  0
    0.1724   -1.4765   -0.7968 C   0  0  0  0  0  0  0  0  0  0  0  0
    0.5332   -0.1261   -0.5655 C   0  0  0  0  0  0  0  0  0  0  0  0
    0.1441    0.5254    0.5599 C   0  0  0  0  0  0  0  0  0  0  0  0
   -0.6181   -0.1262    1.5591 C   0  0  0  0  0  0  0  0  0  0  0  0
   -1.0808    0.5327    2.7442 C   0  0  0  0  0  0  0  0  0  0  0  0
   -0.9640    1.9977    2.9191 C   0  0  0  0  0  0  0  0  0  0  0  0
   -1.5407    2.8843    2.0016 C   0  0  0  0  0  0  0  0  0  0  0  0
   -1.4657    4.2518    2.2050 C   0  0  0  0  0  0  0  0  0  0  0  0
   -0.8052    4.7641    3.3206 C   0  0  0  0  0  0  0  0  0  0  0  0
   -0.2229    3.8834    4.2365 C   0  0  0  0  0  0  0  0  0  0  0  0
   -0.3075    2.5171    4.0338 C   0  0  0  0  0  0  0  0  0  0  0  0
   -1.6646   -0.2396    3.7175 C   0  0  0  0  0  0  0  0  0  0  0  0
   -1.8946   -1.5931    3.4836 C   0  0  0  0  0  0  0  0  0  0  0  0
   -1.5404   -2.2215    2.3550 N   0  0  0  0  0  0  0  0  0  0  0  0
   -0.9155   -1.5084    1.4197 C   0  0  0  0  0  0  0  0  0  0  0  0
    2.3528   -2.0125   -3.6885 C   0  0  0  0  0  0  0  0  0  0  0  0
    2.9609   -1.3956   -4.7699 C   0  0  0  0  0  0  0  0  0  0  0  0
    2.8695    0.2310   -6.1788 H   0  0  0  0  0  0  0  0  0  0  0  0
    0.7488    1.1257   -5.2575 H   0  0  0  0  0  0  0  0  0  0  0  0
   -0.3202    0.0318   -3.3072 H   0  0  0  0  0  0  0  0  0  0  0  0
    0.4603   -4.0997   -2.9462 H   0  0  0  0  0  0  0  0  0  0  0  0
   -0.7334   -5.1704   -1.0832 H   0  0  0  0  0  0  0  0  0  0  0  0
    1.1306    0.3800   -1.2992 H   0  0  0  0  0  0  0  0  0  0  0  0
    0.4264    1.5507    0.7100 H   0  0  0  0  0  0  0  0  0  0  0  0
   -2.0600    2.4854    1.1320 H   0  0  0  0  0  0  0  0  0  0  0  0
   -1.9268    4.9298    1.4948 H   0  0  0  0  0  0  0  0  0  0  0  0
   -0.7422    5.8326    3.4757 H   0  0  0  0  0  0  0  0  0  0  0  0
    0.2962    4.2747    5.1019 H   0  0  0  0  0  0  0  0  0  0  0  0
    0.1340    1.8330    4.7509 H   0  0  0  0  0  0  0  0  0  0  0  0
   -1.9571    0.2025    4.6664 H   0  0  0  0  0  0  0  0  0  0  0  0
   -2.3908   -2.1827    4.2374 H   0  0  0  0  0  0  0  0  0  0  0  0
    2.7910   -2.9061   -3.2593 H   0  0  0  0  0  0  0  0  0  0  0  0
    3.8810   -1.7987   -5.1766 H   0  0  0  0  0  0  0  0  0  0  0  0
  1  2  2  0
  2  3  1  0
  3  4  2  0
  4  5  1  0
  5  6  2  0
  6  7  1  0
  7  8  2  0
  8  9  1  0
  9 10  2  0
 10 11  1  0
 11 12  2  0
 12 13  1  0
 13 14  2  0
 14 15  1  0
 15 16  2  0
 16 17  1  0
 17 18  2  0
 18 19  1  0
 19 20  2  0
 14 21  1  0
 21 22  2  0
 22 23  1  0
 23 24  2  0
  4 25  1  0
 25 26  2  0
 26  1  1  0
 10  5  1  0
 24 13  1  0
 24  9  1  0
 20 15  1  0
  1 27  1  0
  2 28  1  0
  3 29  1  0
  6 30  1  0
  7 31  1  0
 11 32  1  0
 12 33  1  0
 16 34  1  0
 17 35  1  0
 18 36  1  0
 19 37  1  0
 20 38  1  0
 21 39  1  0
 22 40  1  0
 25 41  1  0
 26 42  1  0
M  END
$$$$

     RDKit          3D

 42 46  0  0  0  0  0  0  0  0999 V2000
    1.6543    2.9977    4.7345 C   0  0  0  0  0  0  0  0  0  0  0  0
    2.0012    1.6568    4.8932 C   0  0  0  0  0  0  0  0  0  0  0  0
    2.3068    0.8752    3.7893 C   0  0  0  0  0  0  0  0  0  0  0  0
    2.2795    1.4244    2.5067 C   0  0  0  0  0  0  0  0  0  0  0  0
    2.6538    0.6066    1.3323 C   0  0  0  0  0  0  0  0  0  0  0  0
    3.9563    0.3294    1.0371 C   0  0  0  0  0  0  0  0  0  0  0  0
    4.2703   -0.4087   -0.1115 C   0  0  0  0  0  0  0  0  0  0  0  0
    3.3580   -0.8835   -0.9581 N   0  0  0  0  0  0  0  0  0  0  0  0
    2.0674   -0.6461   -0.6856 C   0  0  0  0  0  0  0  0  0  0  0  0
    1.6420    0.0956    0.4398 C   0  0  0  0  0  0  0  0  0  0  0  0
    0.2614    0.2887    0.6692 C   0  0  0  0  0  0  0  0  0  0  0  0
   -0.6721   -0.2057   -0.1830 C   0  0  0  0  0  0  0  0  0  0  0  0
   -0.3017   -0.9337   -1.3400 C   0  0  0  0  0  0  0  0  0  0  0  0
   -1.2494   -1.4693   -2.2739 C   0  0  0  0  0  0  0  0  0  0  0  0
   -2.7004   -1.1929   -2.1772 C   0  0  0  0  0  0  0  0  0  0  0  0
   -3.6220   -2.2444   -2.1800 C   0  0  0  0  0  0  0  0  0  0  0  0
   -4.9798   -1.9951   -2.1354 C   0  0  0  0  0  0  0  0  0  0  0  0
   -5.4519   -0.6825   -2.0976 C   0  0  0  0  0  0  0  0  0  0  0  0
   -4.5431    0.3719   -2.0938 C   0  0  0  0  0  0  0  0  0  0  0  0
   -3.1796    0.1178   -2.1250 C   0  0  0  0  0  0  0  0  0  0  0  0
   -0.7639   -2.2380   -3.3027 C   0  0  0  0  0  0  0  0  0  0  0  0
    0.6082   -2.4254   -3.4482 C   0  0  0  0  0  0  0  0  0  0  0  0
    1.5172   -1.9109   -2.6136 N   0  0  0  0  0  0  0  0  0  0  0  0
    1.0765   -1.1890   -1.5887 C   0  0  0  0  0  0  0  0  0  0  0  0
    1.9204    2.7654    2.3481 C   0  0  0  0  0  0  0  0  0  0  0  0
    1.6118    3.5496    3.4547 C   0  0  0  0  0  0  0  0  0  0  0  0
    1.4239    3.6059    5.5985 H   0  0  0  0  0  0  0  0  0  0  0  0
    2.0279    1.2222    5.8842 H   0  0  0  0  0  0  0  0  0  0  0  0
    2.5771   -0.1682    3.9063 H   0  0  0  0  0  0  0  0  0  0  0  0
    4.7525    0.6731    1.6935 H   0  0  0  0  0  0  0  0  0  0  0  0
    5.3020   -0.6139   -0.3388 H   0  0  0  0  0  0  0  0  0  0  0  0
   -0.0306    0.8308    1.5481 H   0  0  0  0  0  0  0  0  0  0  0  0
   -1.7156   -0.0632    0.0198 H   0  0  0  0  0  0  0  0  0  0  0  0
   -3.2542   -3.2629   -2.2156 H   0  0  0  0  0  0  0  0  0  0  0  0
   -5.6852   -2.8168   -2.1258 H   0  0  0  0  0  0  0  0  0  0  0  0
   -6.5129   -0.4822   -2.0704 H   0  0  0  0  0  0  0  0  0  0  0  0
   -4.9019    1.3929   -2.0634 H   0  0  0  0  0  0  0  0  0  0  0  0
   -2.4731    0.9453   -2.1167 H   0  0  0  0  0  0  0  0  0  0  0  0
   -1.4484   -2.6920   -4.0144 H   0  0  0  0  0  0  0  0  0  0  0  0
    0.9793   -3.0113   -4.2736 H   0  0  0  0  0  0  0  0  0  0  0  0
    1.9035    3.2000    1.3564 H   0  0  0  0  0  0  0  0  0  0  0  0
    1.3341    4.5863    3.3214 H   0  0  0  0  0  0  0  0  0  0  0  0
  1  2  2  0
  2  3  1  0
  3  4  2  0
  4  5  1  0
  5  6  2  0
  6  7  1  0
  7  8  2  0
  8  9  1  0
  9 10  2  0
 10 11  1  0
 11 12  2  0
 12 13  1  0
 13 14  2  0
 14 15  1  0
 15 16  2  0
 16 17  1  0
 17 18  2  0
 18 19  1  0
 19 20  2  0
 14 21  1  0
 21 22  2  0
 22 23  1  0
 23 24  2  0
  4 25  1  0
 25 26  2  0
 26  1  1  0
 10  5  1  0
 24 13  1  0
 24  9  1  0
 20 15  1  0
  1 27  1  0
  2 28  1  0
  3 29  1  0
  6 30  1  0
  7 31  1  0
 11 32  1  0
 12 33  1  0
 16 34  1  0
 17 35  1  0
 18 36  1  0
 19 37  1  0
 20 38  1  0
 21 39  1  0
 22 40  1  0
 25 41  1  0
 26 42  1  0
M  END
$$$$

     RDKit          3D

 42 46  0  0  0  0  0  0  0  0999 V2000
   -2.6596    2.8106   -4.4990 C   0  0  0  0  0  0  0  0  0  0  0  0
   -1.4081    2.5351   -5.0551 C   0  0  0  0  0  0  0  0  0  0  0  0
   -0.6236    1.5198   -4.5417 C   0  0  0  0  0  0  0  0  0  0  0  0
   -1.0637    0.7537   -3.4608 C   0  0  0  0  0  0  0  0  0  0  0  0
   -0.2386   -0.3720   -2.9701 C   0  0  0  0  0  0  0  0  0  0  0  0
    0.2436   -1.3084   -3.8457 C   0  0  0  0  0  0  0  0  0  0  0  0
    0.9433   -2.4204   -3.3654 C   0  0  0  0  0  0  0  0  0  0  0  0
    1.1874   -2.6323   -2.0761 N   0  0  0  0  0  0  0  0  0  0  0  0
    0.7456   -1.7248   -1.1937 C   0  0  0  0  0  0  0  0  0  0  0  0
    0.0576   -0.5478   -1.5677 C   0  0  0  0  0  0  0  0  0  0  0  0
   -0.2655    0.4111   -0.5746 C   0  0  0  0  0  0  0  0  0  0  0  0
    0.0340    0.2068    0.7321 C   0  0  0  0  0  0  0  0  0  0  0  0
    0.6860   -0.9746    1.1643 C   0  0  0  0  0  0  0  0  0  0  0  0
    1.0120   -1.2380    2.5366 C   0  0  0  0  0  0  0  0  0  0  0  0
    0.8353   -0.2293    3.6053 C   0  0  0  0  0  0  0  0  0  0  0  0
    1.3605    1.0647    3.4811 C   0  0  0  0  0  0  0  0  0  0  0  0
    1.2249    1.9820    4.5106 C   0  0  0  0  0  0  0  0  0  0  0  0
    0.5445    1.6374    5.6773 C   0  0  0  0  0  0  0  0  0  0  0  0
    0.0170    0.3508    5.8086 C   0  0  0  0  0  0  0  0  0  0  0  0
    0.1716   -0.5706    4.7834 C   0  0  0  0  0  0  0  0  0  0  0  0
    1.5211   -2.4777    2.8390 C   0  0  0  0  0  0  0  0  0  0  0  0
    1.7666   -3.3999    1.8246 C   0  0  0  0  0  0  0  0  0  0  0  0
    1.5243   -3.1595    0.5312 N   0  0  0  0  0  0  0  0  0  0  0  0
    1.0050   -1.9780    0.2076 C   0  0  0  0  0  0  0  0  0  0  0  0
   -2.3170    1.0350   -2.9059 C   0  0  0  0  0  0  0  0  0  0  0  0
   -3.1131    2.0459   -3.4254 C   0  0  0  0  0  0  0  0  0  0  0  0
   -3.2732    3.6062   -4.8988 H   0  0  0  0  0  0  0  0  0  0  0  0
   -1.0517    3.1248   -5.8943 H   0  0  0  0  0  0  0  0  0  0  0  0
    0.3457    1.3025   -4.9734 H   0  0  0  0  0  0  0  0  0  0  0  0
    0.0727   -1.2045   -4.9120 H   0  0  0  0  0  0  0  0  0  0  0  0
    1.3012   -3.1560   -4.0648 H   0  0  0  0  0  0  0  0  0  0  0  0
   -0.7335    1.3280   -0.8735 H   0  0  0  0  0  0  0  0  0  0  0  0
   -0.2364    0.9441    1.4637 H   0  0  0  0  0  0  0  0  0  0  0  0
    1.8922    1.3332    2.5668 H   0  0  0  0  0  0  0  0  0  0  0  0
    1.6500    2.9724    4.4055 H   0  0  0  0  0  0  0  0  0  0  0  0
    0.4274    2.3601    6.4726 H   0  0  0  0  0  0  0  0  0  0  0  0
   -0.5158    0.0728    6.7114 H   0  0  0  0  0  0  0  0  0  0  0  0
   -0.2210   -1.5728    4.8943 H   0  0  0  0  0  0  0  0  0  0  0  0
    1.7441   -2.7394    3.8707 H   0  0  0  0  0  0  0  0  0  0  0  0
    2.1731   -4.3645    2.0772 H   0  0  0  0  0  0  0  0  0  0  0  0
   -2.6750    0.4402   -2.0657 H   0  0  0  0  0  0  0  0  0  0  0  0
   -4.0908    2.2332   -3.0002 H   0  0  0  0  0  0  0  0  0  0  0  0
  1  2  2  0
  2  3  1  0
  3  4  2  0
  4  5  1  0
  5  6  2  0
  6  7  1  0
  7  8  2  0
  8  9  1  0
  9 10  2  0
 10 11  1  0
 11 12  2  0
 12 13  1  0
 13 14  2  0
 14 15  1  0
 15 16  2  0
 16 17  1  0
 17 18  2  0
 18 19  1  0
 19 20  2  0
 14 21  1  0
 21 22  2  0
 22 23  1  0
 23 24  2  0
  4 25  1  0
 25 26  2  0
 26  1  1  0
 10  5  1  0
 24 13  1  0
 24  9  1  0
 20 15  1  0
  1 27  1  0
  2 28  1  0
  3 29  1  0
  6 30  1  0
  7 31  1  0
 11 32  1  0
 12 33  1  0
 16 34  1  0
 17 35  1  0
 18 36  1  0
 19 37  1  0
 20 38  1  0
 21 39  1  0
 22 40  1  0
 25 41  1  0
 26 42  1  0
M  END
$$$$

     RDKit          3D

 42 46  0  0  0  0  0  0  0  0999 V2000
    0.9976   -3.6019    4.5106 C   0  0  0  0  0  0  0  0  0  0  0  0
    0.1152   -3.6551    3.4315 C   0  0  0  0  0  0  0  0  0  0  0  0
    0.4770   -3.1227    2.2048 C   0  0  0  0  0  0  0  0  0  0  0  0
    1.7328   -2.5313    2.0289 C   0  0  0  0  0  0  0  0  0  0  0  0
    2.1508   -2.0050    0.7113 C   0  0  0  0  0  0  0  0  0  0  0  0
    3.2586   -2.4911    0.0733 C   0  0  0  0  0  0  0  0  0  0  0  0
    3.5674   -2.0449   -1.2181 C   0  0  0  0  0  0  0  0  0  0  0  0
    2.8399   -1.1522   -1.8850 N   0  0  0  0  0  0  0  0  0  0  0  0
    1.7741   -0.6209   -1.2688 C   0  0  0  0  0  0  0  0  0  0  0  0
    1.3864   -0.9795    0.0432 C   0  0  0  0  0  0  0  0  0  0  0  0
    0.3082   -0.3018    0.6622 C   0  0  0  0  0  0  0  0  0  0  0  0
   -0.4148    0.6288   -0.0071 C   0  0  0  0  0  0  0  0  0  0  0  0
   -0.1249    0.9654   -1.3522 C   0  0  0  0  0  0  0  0  0  0  0  0
   -0.8848    1.9161   -2.1087 C   0  0  0  0  0  0  0  0  0  0  0  0
   -2.1006    2.5666   -1.5681 C   0  0  0  0  0  0  0  0  0  0  0  0
   -3.1734    1.8141   -1.0704 C   0  0  0  0  0  0  0  0  0  0  0  0
   -4.3320    2.4371   -0.6322 C   0  0  0  0  0  0  0  0  0  0  0  0
   -4.4351    3.8269   -0.6617 C   0  0  0  0  0  0  0  0  0  0  0  0
   -3.3657    4.5830   -1.1454 C   0  0  0  0  0  0  0  0  0  0  0  0
   -2.2157    3.9555   -1.5963 C   0  0  0  0  0  0  0  0  0  0  0  0
   -0.4506    2.2120   -3.3770 C   0  0  0  0  0  0  0  0  0  0  0  0
    0.6680    1.5672   -3.9010 C   0  0  0  0  0  0  0  0  0  0  0  0
    1.3833    0.6609   -3.2276 N   0  0  0  0  0  0  0  0  0  0  0  0
    0.9971    0.3623   -1.9906 C   0  0  0  0  0  0  0  0  0  0  0  0
    2.6103   -2.4811    3.1108 C   0  0  0  0  0  0  0  0  0  0  0  0
    2.2510   -3.0061    4.3402 C   0  0  0  0  0  0  0  0  0  0  0  0
    0.7169   -4.0144    5.4687 H   0  0  0  0  0  0  0  0  0  0  0  0
   -0.8554   -4.1216    3.5531 H   0  0  0  0  0  0  0  0  0  0  0  0
   -0.2079   -3.1602    1.3600 H   0  0  0  0  0  0  0  0  0  0  0  0
    3.8988   -3.2250    0.5560 H   0  0  0  0  0  0  0  0  0  0  0  0
    4.4318   -2.4469   -1.7159 H   0  0  0  0  0  0  0  0  0  0  0  0
    0.0820   -0.5303    1.6878 H   0  0  0  0  0  0  0  0  0  0  0  0
   -1.2251    1.1338    0.4810 H   0  0  0  0  0  0  0  0  0  0  0  0
   -3.0845    0.7303   -1.0413 H   0  0  0  0  0  0  0  0  0  0  0  0
   -5.1656    1.8426   -0.2712 H   0  0  0  0  0  0  0  0  0  0  0  0
   -5.3307    4.3186   -0.3057 H   0  0  0  0  0  0  0  0  0  0  0  0
   -3.4344    5.6639   -1.1667 H   0  0  0  0  0  0  0  0  0  0  0  0
   -1.3900    4.5416   -1.9837 H   0  0  0  0  0  0  0  0  0  0  0  0
   -0.9737    2.9478   -3.9803 H   0  0  0  0  0  0  0  0  0  0  0  0
    0.9910    1.8007   -4.9022 H   0  0  0  0  0  0  0  0  0  0  0  0
    3.5864   -2.0293    2.9793 H   0  0  0  0  0  0  0  0  0  0  0  0
    2.9404   -2.9536    5.1742 H   0  0  0  0  0  0  0  0  0  0  0  0
  1  2  2  0
  2  3  1  0
  3  4  2  0
  4  5  1  0
  5  6  2  0
  6  7  1  0
  7  8  2  0
  8  9  1  0
  9 10  2  0
 10 11  1  0
 11 12  2  0
 12 13  1  0
 13 14  2  0
 14 15  1  0
 15 16  2  0
 16 17  1  0
 17 18  2  0
 18 19  1  0
 19 20  2  0
 14 21  1  0
 21 22  2  0
 22 23  1  0
 23 24  2  0
  4 25  1  0
 25 26  2  0
 26  1  1  0
 10  5  1  0
 24 13  1  0
 24  9  1  0
 20 15  1  0
  1 27  1  0
  2 28  1  0
  3 29  1  0
  6 30  1  0
  7 31  1  0
 11 32  1  0
 12 33  1  0
 16 34  1  0
 17 35  1  0
 18 36  1  0
 19 37  1  0
 20 38  1  0
 21 39  1  0
 22 40  1  0
 25 41  1  0
 26 42  1  0
M  END
$$$$
