
     RDKit          3D

 48 52  0  0  0  0  0  0  0  0999 V2000
   -1.7745   -4.2478    2.5573 C   0  0  0  0  0  0  0  0  0  0  0  0
   -1.2388   -2.9144    2.1373 C   0  0  0  0  0  0  0  0  0  0  0  0
   -1.0587   -1.9100    3.1015 C   0  0  0  0  0  0  0  0  0  0  0  0
   -0.6002   -0.6734    2.7374 C   0  0  0  0  0  0  0  0  0  0  0  0
   -0.4740    0.4157    3.7316 C   0  0  0  0  0  0  0  0  0  0  0  0
   -1.2879    1.5459    3.6510 C   0  0  0  0  0  0  0  0  0  0  0  0
   -1.1864    2.5560    4.6022 C   0  0  0  0  0  0  0  0  0  0  0  0
   -0.2625    2.4540    5.6385 C   0  0  0  0  0  0  0  0  0  0  0  0
    0.5513    1.3267    5.7238 C   0  0  0  0  0  0  0  0  0  0  0  0
    0.4430    0.3161    4.7753 C   0  0  0  0  0  0  0  0  0  0  0  0
   -0.2712   -0.4543    1.3562 C   0  0  0  0  0  0  0  0  0  0  0  0
    0.2957    0.7581    0.8781 C   0  0  0  0  0  0  0  0  0  0  0  0
    0.5783    0.9276   -0.4400 C   0  0  0  0  0  0  0  0  0  0  0  0
    0.2857   -0.0857   -1.3938 C   0  0  0  0  0  0  0  0  0  0  0  0
    0.5119    0.0646   -2.7980 C   0  0  0  0  0  0  0  0  0  0  0  0
    0.9901    1.3329   -3.3889 C   0  0  0  0  0  0  0  0  0  0  0  0
    0.3308    2.5450   -3.1564 C   0  0  0  0  0  0  0  0  0  0  0  0
    0.7776    3.7199   -3.7481 C   0  0  0  0  0  0  0  0  0  0  0  0
    1.8932    3.7086   -4.5788 C   0  0  0  0  0  0  0  0  0  0  0  0
    2.5529    2.5031   -4.8172 C   0  0  0  0  0  0  0  0  0  0  0  0
    2.1012    1.3300   -4.2303 C   0  0  0  0  0  0  0  0  0  0  0  0
    0.2584   -1.0182   -3.6070 C   0  0  0  0  0  0  0  0  0  0  0  0
   -0.2444   -2.2060   -3.0773 C   0  0  0  0  0  0  0  0  0  0  0  0
   -0.5174   -3.3583   -3.9904 C   0  0  0  0  0  0  0  0  0  0  0  0
   -0.4881   -2.3514   -1.7651 N   0  0  0  0  0  0  0  0  0  0  0  0
   -0.2285   -1.3334   -0.9531 C   0  0  0  0  0  0  0  0  0  0  0  0
   -0.4995   -1.5198    0.4641 C   0  0  0  0  0  0  0  0  0  0  0  0
   -0.9641   -2.7174    0.8495 N   0  0  0  0  0  0  0  0  0  0  0  0
   -1.7371   -4.9361    1.7180 H   0  0  0  0  0  0  0  0  0  0  0  0
   -1.1933   -4.6541    3.3924 H   0  0  0  0  0  0  0  0  0  0  0  0
   -2.8107   -4.1574    2.8925 H   0  0  0  0  0  0  0  0  0  0  0  0
   -1.2909   -2.1216    4.1405 H   0  0  0  0  0  0  0  0  0  0  0  0
   -2.0084    1.6234    2.8387 H   0  0  0  0  0  0  0  0  0  0  0  0
   -1.8282    3.4280    4.5307 H   0  0  0  0  0  0  0  0  0  0  0  0
   -0.1737    3.2451    6.3628 H   0  0  0  0  0  0  0  0  0  0  0  0
    1.2723    1.2380    6.5241 H   0  0  0  0  0  0  0  0  0  0  0  0
    1.0668   -0.5672    4.8569 H   0  0  0  0  0  0  0  0  0  0  0  0
    0.5044    1.5418    1.5886 H   0  0  0  0  0  0  0  0  0  0  0  0
    1.0397    1.8390   -0.7801 H   0  0  0  0  0  0  0  0  0  0  0  0
   -0.5464    2.5534   -2.5062 H   0  0  0  0  0  0  0  0  0  0  0  0
    0.2531    4.6514   -3.5568 H   0  0  0  0  0  0  0  0  0  0  0  0
    2.2488    4.6226   -5.0253 H   0  0  0  0  0  0  0  0  0  0  0  0
    3.4259    2.4811   -5.4572 H   0  0  0  0  0  0  0  0  0  0  0  0
    2.6082    0.3941   -4.4247 H   0  0  0  0  0  0  0  0  0  0  0  0
    0.4442   -0.9521   -4.6768 H   0  0  0  0  0  0  0  0  0  0  0  0
   -1.1595   -3.0549   -4.8214 H   0  0  0  0  0  0  0  0  0  0  0  0
    0.4104   -3.7330   -4.4221 H   0  0  0  0  0  0  0  0  0  0  0  0
   -0.9996   -4.1555   -3.4339 H   0  0  0  0  0  0  0  0  0  0  0  0
  1  2  1  0
  2  3  1  0
  3  4  2  0
  4  5  1  0
  5  6  2  0
  6  7  1  0
  7  8  2  0
  8  9  1  0
  9 10  2  0
  4 11  1  0
 11 12  1  0
 12 13  2  0
 13 14  1  0
 14 15  2  0
 15 16  1  0
 16 17  2  0
 17 18  1  0
 18 19  2  0
 19 20  1  0
 20 21  2  0
 15 22  1  0
 22 23  2  0
 23 24  1  0
 23 25  1  0
 25 26  2  0
 26 27  1  0
 27 28  1  0
 28  2  2  0
 10  5  1  0
 27 11  2  0
 26 14  1  0
 21 16  1  0
  1 29  1  0
  1 30  1  0
  1 31  1  0
  3 32  1  0
  6 33  1  0
  7 34  1  0
  8 35  1  0
  9 36  1  0
 10 37  1  0
 12 38  1  0
 13 39  1  0
 17 40  1  0
 18 41  1  0
 19 42  1  0
 20 43  1  0
 21 44  1  0
 22 45  1  0
 24 46  1  0
 24 47  1  0
 24 48  1  0
M  END
$$$$

     RDKit          3D

 48 52  0  0  0  0  0  0  0  0999 V2000
    2.6694    3.7141   -2.5964 C   0  0  0  0  0  0  0  0  0  0  0  0
    1.7780    2.9169   -1.6978 C   0  0  0  0  0  0  0  0  0  0  0  0
    0.9787    3.5838   -0.7554 C   0  0  0  0  0  0  0  0  0  0  0  0
    0.1249    2.8896    0.0541 C   0  0  0  0  0  0  0  0  0  0  0  0
   -0.7594    3.5792    1.0191 C   0  0  0  0  0  0  0  0  0  0  0  0
   -0.2387    4.1125    2.1953 C   0  0  0  0  0  0  0  0  0  0  0  0
   -1.0651    4.7790    3.0927 C   0  0  0  0  0  0  0  0  0  0  0  0
   -2.4254    4.9100    2.8309 C   0  0  0  0  0  0  0  0  0  0  0  0
   -2.9516    4.3794    1.6577 C   0  0  0  0  0  0  0  0  0  0  0  0
   -2.1234    3.7126    0.7592 C   0  0  0  0  0  0  0  0  0  0  0  0
    0.1081    1.4565   -0.0695 C   0  0  0  0  0  0  0  0  0  0  0  0
   -0.6924    0.6233    0.7534 C   0  0  0  0  0  0  0  0  0  0  0  0
   -0.6771   -0.7299    0.6096 C   0  0  0  0  0  0  0  0  0  0  0  0
    0.1689   -1.3646   -0.3425 C   0  0  0  0  0  0  0  0  0  0  0  0
    0.2479   -2.7814   -0.5165 C   0  0  0  0  0  0  0  0  0  0  0  0
   -0.4583   -3.7286    0.3738 C   0  0  0  0  0  0  0  0  0  0  0  0
   -0.3258   -3.6664    1.7654 C   0  0  0  0  0  0  0  0  0  0  0  0
   -0.9574   -4.5958    2.5805 C   0  0  0  0  0  0  0  0  0  0  0  0
   -1.7440   -5.5990    2.0225 C   0  0  0  0  0  0  0  0  0  0  0  0
   -1.8836   -5.6670    0.6370 C   0  0  0  0  0  0  0  0  0  0  0  0
   -1.2431   -4.7409   -0.1755 C   0  0  0  0  0  0  0  0  0  0  0  0
    1.0293   -3.2606   -1.5430 C   0  0  0  0  0  0  0  0  0  0  0  0
    1.7708   -2.3912   -2.3436 C   0  0  0  0  0  0  0  0  0  0  0  0
    2.6285   -2.9466   -3.4379 C   0  0  0  0  0  0  0  0  0  0  0  0
    1.7363   -1.0633   -2.1661 N   0  0  0  0  0  0  0  0  0  0  0  0
    0.9665   -0.5669   -1.2048 C   0  0  0  0  0  0  0  0  0  0  0  0
    0.9510    0.8771   -1.0411 C   0  0  0  0  0  0  0  0  0  0  0  0
    1.7637    1.5930   -1.8361 N   0  0  0  0  0  0  0  0  0  0  0  0
    3.2569    4.4342   -2.0251 H   0  0  0  0  0  0  0  0  0  0  0  0
    3.3390    3.0468   -3.1272 H   0  0  0  0  0  0  0  0  0  0  0  0
    2.0745    4.2731   -3.3206 H   0  0  0  0  0  0  0  0  0  0  0  0
    1.0462    4.6670   -0.6724 H   0  0  0  0  0  0  0  0  0  0  0  0
    0.8167    4.0086    2.4027 H   0  0  0  0  0  0  0  0  0  0  0  0
   -0.6477    5.1894    4.0038 H   0  0  0  0  0  0  0  0  0  0  0  0
   -3.0687    5.4146    3.5301 H   0  0  0  0  0  0  0  0  0  0  0  0
   -4.0087    4.4763    1.4407 H   0  0  0  0  0  0  0  0  0  0  0  0
   -2.5389    3.3008   -0.1559 H   0  0  0  0  0  0  0  0  0  0  0  0
   -1.3077    1.0814    1.5054 H   0  0  0  0  0  0  0  0  0  0  0  0
   -1.3257   -1.3363    1.2107 H   0  0  0  0  0  0  0  0  0  0  0  0
    0.2923   -2.8812    2.2057 H   0  0  0  0  0  0  0  0  0  0  0  0
   -0.8362   -4.5344    3.6570 H   0  0  0  0  0  0  0  0  0  0  0  0
   -2.2438   -6.3095    2.6573 H   0  0  0  0  0  0  0  0  0  0  0  0
   -2.4960   -6.4391    0.1897 H   0  0  0  0  0  0  0  0  0  0  0  0
   -1.3463   -4.8041   -1.2507 H   0  0  0  0  0  0  0  0  0  0  0  0
    1.0807   -4.3300   -1.7293 H   0  0  0  0  0  0  0  0  0  0  0  0
    3.3176   -3.7005   -3.0450 H   0  0  0  0  0  0  0  0  0  0  0  0
    2.0178   -3.4338   -4.1980 H   0  0  0  0  0  0  0  0  0  0  0  0
    3.2010   -2.1482   -3.9037 H   0  0  0  0  0  0  0  0  0  0  0  0
  1  2  1  0
  2  3  1  0
  3  4  2  0
  4  5  1  0
  5  6  2  0
  6  7  1  0
  7  8  2  0
  8  9  1  0
  9 10  2  0
  4 11  1  0
 11 12  1  0
 12 13  2  0
 13 14  1  0
 14 15  2  0
 15 16  1  0
 16 17  2  0
 17 18  1  0
 18 19  2  0
 19 20  1  0
 20 21  2  0
 15 22  1  0
 22 23  2  0
 23 24  1  0
 23 25  1  0
 25 26  2  0
 26 27  1  0
 27 28  1  0
 28  2  2  0
 10  5  1  0
 27 11  2  0
 26 14  1  0
 21 16  1  0
  1 29  1  0
  1 30  1  0
  1 31  1  0
  3 32  1  0
  6 33  1  0
  7 34  1  0
  8 35  1  0
  9 36  1  0
 10 37  1  0
 12 38  1  0
 13 39  1  0
 17 40  1  0
 18 41  1  0
 19 42  1  0
 20 43  1  0
 21 44  1  0
 22 45  1  0
 24 46  1  0
 24 47  1  0
 24 48  1  0
M  END
$$$$

     RDKit          3D

 48 52  0  0  0  0  0  0  0  0999 V2000
    4.7392    2.1871   -0.3934 C   0  0  0  0  0  0  0  0  0  0  0  0
    3.2818    1.8556   -0.3997 C   0  0  0  0  0  0  0  0  0  0  0  0
    2.3522    2.8351   -0.7769 C   0  0  0  0  0  0  0  0  0  0  0  0
    1.0124    2.5556   -0.8062 C   0  0  0  0  0  0  0  0  0  0  0  0
    0.0477    3.5607   -1.3046 C   0  0  0  0  0  0  0  0  0  0  0  0
   -0.0012    4.8335   -0.7337 C   0  0  0  0  0  0  0  0  0  0  0  0
   -0.8749    5.7928   -1.2150 C   0  0  0  0  0  0  0  0  0  0  0  0
   -1.7139    5.5053   -2.2903 C   0  0  0  0  0  0  0  0  0  0  0  0
   -1.6665    4.2437   -2.8748 C   0  0  0  0  0  0  0  0  0  0  0  0
   -0.7932    3.2772   -2.3813 C   0  0  0  0  0  0  0  0  0  0  0  0
    0.5960    1.2490   -0.3665 C   0  0  0  0  0  0  0  0  0  0  0  0
   -0.7663    0.8821   -0.2072 C   0  0  0  0  0  0  0  0  0  0  0  0
   -1.1141   -0.3669    0.2043 C   0  0  0  0  0  0  0  0  0  0  0  0
   -0.1314   -1.3579    0.4737 C   0  0  0  0  0  0  0  0  0  0  0  0
   -0.4477   -2.6839    0.9021 C   0  0  0  0  0  0  0  0  0  0  0  0
   -1.8445   -3.1270    1.1116 C   0  0  0  0  0  0  0  0  0  0  0  0
   -2.7833   -3.0942    0.0779 C   0  0  0  0  0  0  0  0  0  0  0  0
   -4.0858   -3.5246    0.2929 C   0  0  0  0  0  0  0  0  0  0  0  0
   -4.4721   -3.9978    1.5429 C   0  0  0  0  0  0  0  0  0  0  0  0
   -3.5394   -4.0450    2.5756 C   0  0  0  0  0  0  0  0  0  0  0  0
   -2.2374   -3.6163    2.3550 C   0  0  0  0  0  0  0  0  0  0  0  0
    0.5987   -3.5483    1.1300 C   0  0  0  0  0  0  0  0  0  0  0  0
    1.9200   -3.1385    0.9441 C   0  0  0  0  0  0  0  0  0  0  0  0
    3.0368   -4.1008    1.2051 C   0  0  0  0  0  0  0  0  0  0  0  0
    2.2329   -1.8945    0.5473 N   0  0  0  0  0  0  0  0  0  0  0  0
    1.2423   -1.0283    0.3455 C   0  0  0  0  0  0  0  0  0  0  0  0
    1.6082    0.3266   -0.0331 C   0  0  0  0  0  0  0  0  0  0  0  0
    2.9134    0.6287   -0.0413 N   0  0  0  0  0  0  0  0  0  0  0  0
    4.9597    2.9409    0.3611 H   0  0  0  0  0  0  0  0  0  0  0  0
    5.0520    2.5881   -1.3627 H   0  0  0  0  0  0  0  0  0  0  0  0
    5.3122    1.2912   -0.1747 H   0  0  0  0  0  0  0  0  0  0  0  0
    2.7051    3.8241   -1.0559 H   0  0  0  0  0  0  0  0  0  0  0  0
    0.6642    5.0592    0.0897 H   0  0  0  0  0  0  0  0  0  0  0  0
   -0.9096    6.7683   -0.7485 H   0  0  0  0  0  0  0  0  0  0  0  0
   -2.3985    6.2483   -2.6589 H   0  0  0  0  0  0  0  0  0  0  0  0
   -2.3057    4.0083   -3.7168 H   0  0  0  0  0  0  0  0  0  0  0  0
   -0.7587    2.2933   -2.8459 H   0  0  0  0  0  0  0  0  0  0  0  0
   -1.5237    1.6214   -0.3987 H   0  0  0  0  0  0  0  0  0  0  0  0
   -2.1487   -0.6190    0.3418 H   0  0  0  0  0  0  0  0  0  0  0  0
   -2.4746   -2.7404   -0.9040 H   0  0  0  0  0  0  0  0  0  0  0  0
   -4.8062   -3.4883   -0.5169 H   0  0  0  0  0  0  0  0  0  0  0  0
   -5.4842   -4.3224    1.7083 H   0  0  0  0  0  0  0  0  0  0  0  0
   -3.8303   -4.4081    3.5534 H   0  0  0  0  0  0  0  0  0  0  0  0
   -1.5115   -3.6698    3.1575 H   0  0  0  0  0  0  0  0  0  0  0  0
    0.3956   -4.5637    1.4598 H   0  0  0  0  0  0  0  0  0  0  0  0
    2.8511   -5.0608    0.7155 H   0  0  0  0  0  0  0  0  0  0  0  0
    3.9723   -3.6864    0.8372 H   0  0  0  0  0  0  0  0  0  0  0  0
    3.1301   -4.2933    2.2746 H   0  0  0  0  0  0  0  0  0  0  0  0
  1  2  1  0
  2  3  1  0
  3  4  2  0
  4  5  1  0
  5  6  2  0
  6  7  1  0
  7  8  2  0
  8  9  1  0
  9 10  2  0
  4 11  1  0
 11 12  1  0
 12 13  2  0
 13 14  1  0
 14 15  2  0
 15 16  1  0
 16 17  2  0
 17 18  1  0
 18 19  2  0
 19 20  1  0
 20 21  2  0
 15 22  1  0
 22 23  2  0
 23 24  1  0
 23 25  1  0
 25 26  2  0
 26 27  1  0
 27 28  1  0
 28  2  2  0
 10  5  1  0
 27 11  2  0
 26 14  1  0
 21 16  1  0
  1 29  1  0
  1 30  1  0
  1 31  1  0
  3 32  1  0
  6 33  1  0
  7 34  1  0
  8 35  1  0
  9 36  1  0
 10 37  1  0
 12 38  1  0
 13 39  1  0
 17 40  1  0
 18 41  1  0
 19 42  1  0
 20 43  1  0
 21 44  1  0
 22 45  1  0
 24 46  1  0
 24 47  1  0
 24 48  1  0
M  END
$$$$

     RDKit          3D

 48 52  0  0  0  0  0  0  0  0999 V2000
    0.2980    4.2976   -2.9836 C   0  0  0  0  0  0  0  0  0  0  0  0
    0.2388    3.2858   -1.8839 C   0  0  0  0  0  0  0  0  0  0  0  0
    0.3018    3.7167   -0.5495 C   0  0  0  0  0  0  0  0  0  0  0  0
    0.2383    2.8154    0.4801 C   0  0  0  0  0  0  0  0  0  0  0  0
    0.2047    3.2861    1.8834 C   0  0  0  0  0  0  0  0  0  0  0  0
    1.1428    4.2204    2.3275 C   0  0  0  0  0  0  0  0  0  0  0  0
    1.1054    4.7079    3.6224 C   0  0  0  0  0  0  0  0  0  0  0  0
    0.1146    4.2817    4.5070 C   0  0  0  0  0  0  0  0  0  0  0  0
   -0.8334    3.3596    4.0737 C   0  0  0  0  0  0  0  0  0  0  0  0
   -0.7847    2.8617    2.7747 C   0  0  0  0  0  0  0  0  0  0  0  0
    0.1781    1.4181    0.1390 C   0  0  0  0  0  0  0  0  0  0  0  0
    0.2400    0.3777    1.1033 C   0  0  0  0  0  0  0  0  0  0  0  0
    0.1602   -0.9280    0.7387 C   0  0  0  0  0  0  0  0  0  0  0  0
   -0.0065   -1.3085   -0.6200 C   0  0  0  0  0  0  0  0  0  0  0  0
   -0.1357   -2.6659   -1.0464 C   0  0  0  0  0  0  0  0  0  0  0  0
   -0.2049   -3.7887   -0.0863 C   0  0  0  0  0  0  0  0  0  0  0  0
   -1.1566   -3.8069    0.9364 C   0  0  0  0  0  0  0  0  0  0  0  0
   -1.2404   -4.8878    1.8047 C   0  0  0  0  0  0  0  0  0  0  0  0
   -0.3626   -5.9608    1.6785 C   0  0  0  0  0  0  0  0  0  0  0  0
    0.5912   -5.9489    0.6621 C   0  0  0  0  0  0  0  0  0  0  0  0
    0.6608   -4.8756   -0.2139 C   0  0  0  0  0  0  0  0  0  0  0  0
   -0.2125   -2.9070   -2.3987 C   0  0  0  0  0  0  0  0  0  0  0  0
   -0.2024   -1.8515   -3.3128 C   0  0  0  0  0  0  0  0  0  0  0  0
   -0.2896   -2.1534   -4.7754 C   0  0  0  0  0  0  0  0  0  0  0  0
   -0.1048   -0.5716   -2.9259 N   0  0  0  0  0  0  0  0  0  0  0  0
   -0.0067   -0.3065   -1.6246 C   0  0  0  0  0  0  0  0  0  0  0  0
    0.1038    1.0889   -1.2298 C   0  0  0  0  0  0  0  0  0  0  0  0
    0.1365    2.0006   -2.2128 N   0  0  0  0  0  0  0  0  0  0  0  0
    0.0279    3.8271   -3.9297 H   0  0  0  0  0  0  0  0  0  0  0  0
   -0.3892    5.1277   -2.7847 H   0  0  0  0  0  0  0  0  0  0  0  0
    1.3019    4.7128   -3.0701 H   0  0  0  0  0  0  0  0  0  0  0  0
    0.3912    4.7776   -0.3380 H   0  0  0  0  0  0  0  0  0  0  0  0
    1.9035    4.5593    1.6340 H   0  0  0  0  0  0  0  0  0  0  0  0
    1.8532    5.4185    3.9492 H   0  0  0  0  0  0  0  0  0  0  0  0
    0.0854    4.6543    5.5172 H   0  0  0  0  0  0  0  0  0  0  0  0
   -1.6156    3.0216    4.7486 H   0  0  0  0  0  0  0  0  0  0  0  0
   -1.5324    2.1381    2.4459 H   0  0  0  0  0  0  0  0  0  0  0  0
    0.3648    0.6419    2.1365 H   0  0  0  0  0  0  0  0  0  0  0  0
    0.2290   -1.7002    1.4843 H   0  0  0  0  0  0  0  0  0  0  0  0
   -1.8378   -2.9613    1.0421 H   0  0  0  0  0  0  0  0  0  0  0  0
   -1.9969   -4.8946    2.5835 H   0  0  0  0  0  0  0  0  0  0  0  0
   -0.4179   -6.7902    2.3657 H   0  0  0  0  0  0  0  0  0  0  0  0
    1.2824   -6.7746    0.5582 H   0  0  0  0  0  0  0  0  0  0  0  0
    1.3908   -4.8815   -1.0165 H   0  0  0  0  0  0  0  0  0  0  0  0
   -0.2833   -3.9254   -2.7638 H   0  0  0  0  0  0  0  0  0  0  0  0
    0.6185   -2.6563   -5.1130 H   0  0  0  0  0  0  0  0  0  0  0  0
   -0.4180   -1.2304   -5.3341 H   0  0  0  0  0  0  0  0  0  0  0  0
   -1.1317   -2.8214   -4.9833 H   0  0  0  0  0  0  0  0  0  0  0  0
  1  2  1  0
  2  3  1  0
  3  4  2  0
  4  5  1  0
  5  6  2  0
  6  7  1  0
  7  8  2  0
  8  9  1  0
  9 10  2  0
  4 11  1  0
 11 12  1  0
 12 13  2  0
 13 14  1  0
 14 15  2  0
 15 16  1  0
 16 17  2  0
 17 18  1  0
 18 19  2  0
 19 20  1  0
 20 21  2  0
 15 22  1  0
 22 23  2  0
 23 24  1  0
 23 25  1  0
 25 26  2  0
 26 27  1  0
 27 28  1  0
 28  2  2  0
 10  5  1  0
 27 11  2  0
 26 14  1  0
 21 16  1  0
  1 29  1  0
  1 30  1  0
  1 31  1  0
  3 32  1  0
  6 33  1  0
  7 34  1  0
  8 35  1  0
  9 36  1  0
 10 37  1  0
 12 38  1  0
 13 39  1  0
 17 40  1  0
 18 41  1  0
 19 42  1  0
 20 43  1  0
 21 44  1  0
 22 45  1  0
 24 46  1  0
 24 47  1  0
 24 48  1  0
M  END
$$$$

     RDKit          3D

 48 52  0  0  0  0  0  0  0  0999 V2000
   -3.2789   -0.2717   -4.0746 C   0  0  0  0  0  0  0  0  0  0  0  0
   -2.3473   -0.5218   -2.9308 C   0  0  0  0  0  0  0  0  0  0  0  0
   -1.9560   -1.8371   -2.6372 C   0  0  0  0  0  0  0  0  0  0  0  0
   -1.0938   -2.0979   -1.6070 C   0  0  0  0  0  0  0  0  0  0  0  0
   -0.6260   -3.4812   -1.3591 C   0  0  0  0  0  0  0  0  0  0  0  0
    0.7361   -3.7898   -1.3075 C   0  0  0  0  0  0  0  0  0  0  0  0
    1.1593   -5.1012   -1.1248 C   0  0  0  0  0  0  0  0  0  0  0  0
    0.2278   -6.1248   -0.9817 C   0  0  0  0  0  0  0  0  0  0  0  0
   -1.1321   -5.8217   -1.0303 C   0  0  0  0  0  0  0  0  0  0  0  0
   -1.5508   -4.5127   -1.2229 C   0  0  0  0  0  0  0  0  0  0  0  0
   -0.6589   -0.9859   -0.8050 C   0  0  0  0  0  0  0  0  0  0  0  0
    0.1571   -1.1319    0.3469 C   0  0  0  0  0  0  0  0  0  0  0  0
    0.5858   -0.0489    1.0488 C   0  0  0  0  0  0  0  0  0  0  0  0
    0.2148    1.2699    0.6682 C   0  0  0  0  0  0  0  0  0  0  0  0
    0.6737    2.4423    1.3463 C   0  0  0  0  0  0  0  0  0  0  0  0
    1.6841    2.3773    2.4244 C   0  0  0  0  0  0  0  0  0  0  0  0
    2.9584    1.8586    2.1819 C   0  0  0  0  0  0  0  0  0  0  0  0
    3.9101    1.8287    3.1931 C   0  0  0  0  0  0  0  0  0  0  0  0
    3.6081    2.3183    4.4610 C   0  0  0  0  0  0  0  0  0  0  0  0
    2.3389    2.8423    4.7080 C   0  0  0  0  0  0  0  0  0  0  0  0
    1.3908    2.8705    3.6950 C   0  0  0  0  0  0  0  0  0  0  0  0
    0.1547    3.6534    0.9538 C   0  0  0  0  0  0  0  0  0  0  0  0
   -0.7453    3.7334   -0.1105 C   0  0  0  0  0  0  0  0  0  0  0  0
   -1.2715    5.0703   -0.5303 C   0  0  0  0  0  0  0  0  0  0  0  0
   -1.1536    2.6455   -0.7845 N   0  0  0  0  0  0  0  0  0  0  0  0
   -0.6793    1.4565   -0.4171 C   0  0  0  0  0  0  0  0  0  0  0  0
   -1.1116    0.2956   -1.1789 C   0  0  0  0  0  0  0  0  0  0  0  0
   -1.9274    0.5186   -2.2192 N   0  0  0  0  0  0  0  0  0  0  0  0
   -3.4455    0.7969   -4.1862 H   0  0  0  0  0  0  0  0  0  0  0  0
   -2.8611   -0.6670   -5.0049 H   0  0  0  0  0  0  0  0  0  0  0  0
   -4.2344   -0.7678   -3.9008 H   0  0  0  0  0  0  0  0  0  0  0  0
   -2.3435   -2.6559   -3.2366 H   0  0  0  0  0  0  0  0  0  0  0  0
    1.4661   -2.9870   -1.4188 H   0  0  0  0  0  0  0  0  0  0  0  0
    2.2212   -5.3253   -1.0891 H   0  0  0  0  0  0  0  0  0  0  0  0
    0.5542   -7.1383   -0.8239 H   0  0  0  0  0  0  0  0  0  0  0  0
   -1.8673   -6.6078   -0.9091 H   0  0  0  0  0  0  0  0  0  0  0  0
   -2.6076   -4.2813   -1.2718 H   0  0  0  0  0  0  0  0  0  0  0  0
    0.4359   -2.1236    0.6528 H   0  0  0  0  0  0  0  0  0  0  0  0
    1.2227   -0.1799    1.9056 H   0  0  0  0  0  0  0  0  0  0  0  0
    3.2004    1.4796    1.1893 H   0  0  0  0  0  0  0  0  0  0  0  0
    4.8960    1.4196    2.9902 H   0  0  0  0  0  0  0  0  0  0  0  0
    4.3457    2.2812    5.2425 H   0  0  0  0  0  0  0  0  0  0  0  0
    2.0910    3.2231    5.6915 H   0  0  0  0  0  0  0  0  0  0  0  0
    0.4080    3.2891    3.8869 H   0  0  0  0  0  0  0  0  0  0  0  0
    0.4516    4.5615    1.4740 H   0  0  0  0  0  0  0  0  0  0  0  0
   -0.4652    5.6978   -0.9100 H   0  0  0  0  0  0  0  0  0  0  0  0
   -2.0165    4.9393   -1.3087 H   0  0  0  0  0  0  0  0  0  0  0  0
   -1.7189    5.5910    0.3212 H   0  0  0  0  0  0  0  0  0  0  0  0
  1  2  1  0
  2  3  1  0
  3  4  2  0
  4  5  1  0
  5  6  2  0
  6  7  1  0
  7  8  2  0
  8  9  1  0
  9 10  2  0
  4 11  1  0
 11 12  1  0
 12 13  2  0
 13 14  1  0
 14 15  2  0
 15 16  1  0
 16 17  2  0
 17 18  1  0
 18 19  2  0
 19 20  1  0
 20 21  2  0
 15 22  1  0
 22 23  2  0
 23 24  1  0
 23 25  1  0
 25 26  2  0
 26 27  1  0
 27 28  1  0
 28  2  2  0
 10  5  1  0
 27 11  2  0
 26 14  1  0
 21 16  1  0
  1 29  1  0
  1 30  1  0
  1 31  1  0
  3 32  1  0
  6 33  1  0
  7 34  1  0
  8 35  1  0
  9 36  1  0
 10 37  1  0
 12 38  1  0
 13 39  1  0
 17 40  1  0
 18 41  1  0
 19 42  1  0
 20 43  1  0
 21 44  1  0
 22 45  1  0
 24 46  1  0
 24 47  1  0
 24 48  1  0
M  END
$$$$

     RDKit          3D

 48 52  0  0  0  0  0  0  0  0999 V2000
    1.4495   -5.0252   -0.3592 C   0  0  0  0  0  0  0  0  0  0  0  0
    1.3520   -3.5342   -0.2703 C   0  0  0  0  0  0  0  0  0  0  0  0
    2.5270   -2.7728   -0.3535 C   0  0  0  0  0  0  0  0  0  0  0  0
    2.4854   -1.4072   -0.2861 C   0  0  0  0  0  0  0  0  0  0  0  0
    3.7283   -0.6145   -0.4237 C   0  0  0  0  0  0  0  0  0  0  0  0
    4.7972   -0.8334    0.4421 C   0  0  0  0  0  0  0  0  0  0  0  0
    5.9781   -0.1218    0.3069 C   0  0  0  0  0  0  0  0  0  0  0  0
    6.1164    0.8197   -0.7109 C   0  0  0  0  0  0  0  0  0  0  0  0
    5.0599    1.0393   -1.5877 C   0  0  0  0  0  0  0  0  0  0  0  0
    3.8723    0.3280   -1.4436 C   0  0  0  0  0  0  0  0  0  0  0  0
    1.2002   -0.7906   -0.0898 C   0  0  0  0  0  0  0  0  0  0  0  0
    1.0265    0.6109    0.0619 C   0  0  0  0  0  0  0  0  0  0  0  0
   -0.2066    1.1565    0.2122 C   0  0  0  0  0  0  0  0  0  0  0  0
   -1.3727    0.3449    0.2480 C   0  0  0  0  0  0  0  0  0  0  0  0
   -2.6934    0.8696    0.3877 C   0  0  0  0  0  0  0  0  0  0  0  0
   -2.9816    2.3214    0.3514 C   0  0  0  0  0  0  0  0  0  0  0  0
   -2.5807    3.1199   -0.7220 C   0  0  0  0  0  0  0  0  0  0  0  0
   -2.9055    4.4712   -0.7593 C   0  0  0  0  0  0  0  0  0  0  0  0
   -3.6201    5.0530    0.2838 C   0  0  0  0  0  0  0  0  0  0  0  0
   -4.0192    4.2637    1.3609 C   0  0  0  0  0  0  0  0  0  0  0  0
   -3.7103    2.9113    1.3841 C   0  0  0  0  0  0  0  0  0  0  0  0
   -3.7227   -0.0282    0.5468 C   0  0  0  0  0  0  0  0  0  0  0  0
   -3.4888   -1.4036    0.5035 C   0  0  0  0  0  0  0  0  0  0  0  0
   -4.6374   -2.3523    0.6494 C   0  0  0  0  0  0  0  0  0  0  0  0
   -2.2609   -1.9082    0.3105 N   0  0  0  0  0  0  0  0  0  0  0  0
   -1.2419   -1.0658    0.1855 C   0  0  0  0  0  0  0  0  0  0  0  0
    0.0785   -1.6407   -0.0158 C   0  0  0  0  0  0  0  0  0  0  0  0
    0.1552   -2.9775   -0.1143 N   0  0  0  0  0  0  0  0  0  0  0  0
    1.8723   -5.3274   -1.3208 H   0  0  0  0  0  0  0  0  0  0  0  0
    0.4604   -5.4602   -0.2490 H   0  0  0  0  0  0  0  0  0  0  0  0
    2.1085   -5.4091    0.4249 H   0  0  0  0  0  0  0  0  0  0  0  0
    3.4795   -3.2792   -0.4820 H   0  0  0  0  0  0  0  0  0  0  0  0
    4.6933   -1.5803    1.2202 H   0  0  0  0  0  0  0  0  0  0  0  0
    6.7887   -0.2931    1.0009 H   0  0  0  0  0  0  0  0  0  0  0  0
    7.0313    1.3782   -0.8123 H   0  0  0  0  0  0  0  0  0  0  0  0
    5.1573    1.7684   -2.3856 H   0  0  0  0  0  0  0  0  0  0  0  0
    3.0484    0.4964   -2.1364 H   0  0  0  0  0  0  0  0  0  0  0  0
    1.9033    1.2383    0.0571 H   0  0  0  0  0  0  0  0  0  0  0  0
   -0.3166    2.2211    0.3220 H   0  0  0  0  0  0  0  0  0  0  0  0
   -2.0136    2.6696   -1.5372 H   0  0  0  0  0  0  0  0  0  0  0  0
   -2.6025    5.0741   -1.6094 H   0  0  0  0  0  0  0  0  0  0  0  0
   -3.8525    6.1042    0.2624 H   0  0  0  0  0  0  0  0  0  0  0  0
   -4.5676    4.7043    2.1812 H   0  0  0  0  0  0  0  0  0  0  0  0
   -4.0472    2.2980    2.2119 H   0  0  0  0  0  0  0  0  0  0  0  0
   -4.7360    0.3322    0.7016 H   0  0  0  0  0  0  0  0  0  0  0  0
   -5.2071   -2.4065   -0.2765 H   0  0  0  0  0  0  0  0  0  0  0  0
   -5.3191   -2.0213    1.4426 H   0  0  0  0  0  0  0  0  0  0  0  0
   -4.2655   -3.3413    0.8861 H   0  0  0  0  0  0  0  0  0  0  0  0
  1  2  1  0
  2  3  1  0
  3  4  2  0
  4  5  1  0
  5  6  2  0
  6  7  1  0
  7  8  2  0
  8  9  1  0
  9 10  2  0
  4 11  1  0
 11 12  1  0
 12 13  2  0
 13 14  1  0
 14 15  2  0
 15 16  1  0
 16 17  2  0
 17 18  1  0
 18 19  2  0
 19 20  1  0
 20 21  2  0
 15 22  1  0
 22 23  2  0
 23 24  1  0
 23 25  1  0
 25 26  2  0
 26 27  1  0
 27 28  1  0
 28  2  2  0
 10  5  1  0
 27 11  2  0
 26 14  1  0
 21 16  1  0
  1 29  1  0
  1 30  1  0
  1 31  1  0
  3 32  1  0
  6 33  1  0
  7 34  1  0
  8 35  1  0
  9 36  1  0
 10 37  1  0
 12 38  1  0
 13 39  1  0
 17 40  1  0
 18 41  1  0
 19 42  1  0
 20 43  1  0
 21 44  1  0
 22 45  1  0
 24 46  1  0
 24 47  1  0
 24 48  1  0
M  END
$$$$

     RDKit          3D

 48 52  0  0  0  0  0  0  0  0999 V2000
   -0.7653    4.6243   -2.3663 C   0  0  0  0  0  0  0  0  0  0  0  0
   -0.8497    3.3665   -1.5596 C   0  0  0  0  0  0  0  0  0  0  0  0
   -2.0470    3.0494   -0.9018 C   0  0  0  0  0  0  0  0  0  0  0  0
   -2.1583    1.8946   -0.1746 C   0  0  0  0  0  0  0  0  0  0  0  0
   -3.4529    1.5033    0.4302 C   0  0  0  0  0  0  0  0  0  0  0  0
   -4.1663    2.4043    1.2155 C   0  0  0  0  0  0  0  0  0  0  0  0
   -5.3981    2.0635    1.7497 C   0  0  0  0  0  0  0  0  0  0  0  0
   -5.9490    0.8069    1.4965 C   0  0  0  0  0  0  0  0  0  0  0  0
   -5.2501   -0.0985    0.7074 C   0  0  0  0  0  0  0  0  0  0  0  0
   -4.0046    0.2425    0.1860 C   0  0  0  0  0  0  0  0  0  0  0  0
   -0.9898    1.0654   -0.0565 C   0  0  0  0  0  0  0  0  0  0  0  0
   -0.9365   -0.0881    0.7717 C   0  0  0  0  0  0  0  0  0  0  0  0
    0.1608   -0.8857    0.7987 C   0  0  0  0  0  0  0  0  0  0  0  0
    1.3080   -0.5827    0.0153 C   0  0  0  0  0  0  0  0  0  0  0  0
    2.4736   -1.4128   -0.0277 C   0  0  0  0  0  0  0  0  0  0  0  0
    2.5290   -2.7431    0.6177 C   0  0  0  0  0  0  0  0  0  0  0  0
    3.5675   -3.0523    1.4950 C   0  0  0  0  0  0  0  0  0  0  0  0
    3.6525   -4.3016    2.0873 C   0  0  0  0  0  0  0  0  0  0  0  0
    2.7041   -5.2805    1.7952 C   0  0  0  0  0  0  0  0  0  0  0  0
    1.6749   -4.9916    0.9052 C   0  0  0  0  0  0  0  0  0  0  0  0
    1.5811   -3.7260    0.3282 C   0  0  0  0  0  0  0  0  0  0  0  0
    3.5675   -0.9438   -0.7166 C   0  0  0  0  0  0  0  0  0  0  0  0
    3.5177    0.2716   -1.3997 C   0  0  0  0  0  0  0  0  0  0  0  0
    4.7249    0.7442   -2.1468 C   0  0  0  0  0  0  0  0  0  0  0  0
    2.4134    1.0394   -1.4081 N   0  0  0  0  0  0  0  0  0  0  0  0
    1.3454    0.6216   -0.7318 C   0  0  0  0  0  0  0  0  0  0  0  0
    0.1572    1.4606   -0.7709 C   0  0  0  0  0  0  0  0  0  0  0  0
    0.2243    2.5845   -1.4993 N   0  0  0  0  0  0  0  0  0  0  0  0
   -1.5809    4.6713   -3.0939 H   0  0  0  0  0  0  0  0  0  0  0  0
   -0.8481    5.5022   -1.7235 H   0  0  0  0  0  0  0  0  0  0  0  0
    0.1872    4.6539   -2.8899 H   0  0  0  0  0  0  0  0  0  0  0  0
   -2.8932    3.7219   -0.9884 H   0  0  0  0  0  0  0  0  0  0  0  0
   -3.7431    3.3837    1.4026 H   0  0  0  0  0  0  0  0  0  0  0  0
   -5.9349    2.7761    2.3611 H   0  0  0  0  0  0  0  0  0  0  0  0
   -6.9058    0.5379    1.9121 H   0  0  0  0  0  0  0  0  0  0  0  0
   -5.6703   -1.0762    0.4938 H   0  0  0  0  0  0  0  0  0  0  0  0
   -3.4614   -0.4718   -0.4316 H   0  0  0  0  0  0  0  0  0  0  0  0
   -1.7873   -0.3132    1.3885 H   0  0  0  0  0  0  0  0  0  0  0  0
    0.1789   -1.7626    1.4250 H   0  0  0  0  0  0  0  0  0  0  0  0
    4.3174   -2.2972    1.7085 H   0  0  0  0  0  0  0  0  0  0  0  0
    4.4561   -4.5147    2.7798 H   0  0  0  0  0  0  0  0  0  0  0  0
    2.7632   -6.2524    2.2558 H   0  0  0  0  0  0  0  0  0  0  0  0
    0.9361   -5.7466    0.6574 H   0  0  0  0  0  0  0  0  0  0  0  0
    0.7656   -3.4989   -0.3598 H   0  0  0  0  0  0  0  0  0  0  0  0
    4.4856   -1.5276   -0.7348 H   0  0  0  0  0  0  0  0  0  0  0  0
    5.0156    0.0167   -2.9094 H   0  0  0  0  0  0  0  0  0  0  0  0
    4.5091    1.6958   -2.6257 H   0  0  0  0  0  0  0  0  0  0  0  0
    5.5758    0.8658   -1.4676 H   0  0  0  0  0  0  0  0  0  0  0  0
  1  2  1  0
  2  3  1  0
  3  4  2  0
  4  5  1  0
  5  6  2  0
  6  7  1  0
  7  8  2  0
  8  9  1  0
  9 10  2  0
  4 11  1  0
 11 12  1  0
 12 13  2  0
 13 14  1  0
 14 15  2  0
 15 16  1  0
 16 17  2  0
 17 18  1  0
 18 19  2  0
 19 20  1  0
 20 21  2  0
 15 22  1  0
 22 23  2  0
 23 24  1  0
 23 25  1  0
 25 26  2  0
 26 27  1  0
 27 28  1  0
 28  2  2  0
 10  5  1  0
 27 11  2  0
 26 14  1  0
 21 16  1  0
  1 29  1  0
  1 30  1  0
  1 31  1  0
  3 32  1  0
  6 33  1  0
  7 34  1  0
  8 35  1  0
  9 36  1  0
 10 37  1  0
 12 38  1  0
 13 39  1  0
 17 40  1  0
 18 41  1  0
 19 42  1  0
 20 43  1  0
 21 44  1  0
 22 45  1  0
 24 46  1  0
 24 47  1  0
 24 48  1  0
M  END
$$$$

     RDKit          3D

 48 52  0  0  0  0  0  0  0  0999 V2000
    2.7364   -4.3980   -0.8193 C   0  0  0  0  0  0  0  0  0  0  0  0
    1.9518   -3.2462   -0.2716 C   0  0  0  0  0  0  0  0  0  0  0  0
    1.4993   -3.2918    1.0557 C   0  0  0  0  0  0  0  0  0  0  0  0
    0.7713   -2.2598    1.5826 C   0  0  0  0  0  0  0  0  0  0  0  0
    0.2474   -2.3409    2.9649 C   0  0  0  0  0  0  0  0  0  0  0  0
   -1.1231   -2.2858    3.2185 C   0  0  0  0  0  0  0  0  0  0  0  0
   -1.6065   -2.4244    4.5160 C   0  0  0  0  0  0  0  0  0  0  0  0
   -0.7269   -2.6038    5.5786 C   0  0  0  0  0  0  0  0  0  0  0  0
    0.6452   -2.6554    5.3315 C   0  0  0  0  0  0  0  0  0  0  0  0
    1.1211   -2.5267    4.0336 C   0  0  0  0  0  0  0  0  0  0  0  0
    0.5177   -1.1232    0.7364 C   0  0  0  0  0  0  0  0  0  0  0  0
   -0.1689    0.0371    1.1867 C   0  0  0  0  0  0  0  0  0  0  0  0
   -0.4447    1.0621    0.3427 C   0  0  0  0  0  0  0  0  0  0  0  0
   -0.0474    1.0207   -1.0215 C   0  0  0  0  0  0  0  0  0  0  0  0
   -0.3589    2.0490   -1.9627 C   0  0  0  0  0  0  0  0  0  0  0  0
   -1.2512    3.1812   -1.6310 C   0  0  0  0  0  0  0  0  0  0  0  0
   -2.5289    2.9742   -1.1001 C   0  0  0  0  0  0  0  0  0  0  0  0
   -3.3605    4.0527   -0.8157 C   0  0  0  0  0  0  0  0  0  0  0  0
   -2.9299    5.3520   -1.0629 C   0  0  0  0  0  0  0  0  0  0  0  0
   -1.6612    5.5636   -1.6010 C   0  0  0  0  0  0  0  0  0  0  0  0
   -0.8379    4.4854   -1.8921 C   0  0  0  0  0  0  0  0  0  0  0  0
    0.1891    1.9537   -3.2208 C   0  0  0  0  0  0  0  0  0  0  0  0
    0.9667    0.8526   -3.5794 C   0  0  0  0  0  0  0  0  0  0  0  0
    1.5472    0.7650   -4.9566 C   0  0  0  0  0  0  0  0  0  0  0  0
    1.2261   -0.1451   -2.7203 N   0  0  0  0  0  0  0  0  0  0  0  0
    0.7327   -0.0686   -1.4878 C   0  0  0  0  0  0  0  0  0  0  0  0
    1.0069   -1.1760   -0.5851 C   0  0  0  0  0  0  0  0  0  0  0  0
    1.7163   -2.2076   -1.0708 N   0  0  0  0  0  0  0  0  0  0  0  0
    2.2222   -5.3463   -0.6271 H   0  0  0  0  0  0  0  0  0  0  0  0
    2.8636   -4.2724   -1.8908 H   0  0  0  0  0  0  0  0  0  0  0  0
    3.7181   -4.4543   -0.3458 H   0  0  0  0  0  0  0  0  0  0  0  0
    1.7254   -4.1597    1.6686 H   0  0  0  0  0  0  0  0  0  0  0  0
   -1.8084   -2.1329    2.3877 H   0  0  0  0  0  0  0  0  0  0  0  0
   -2.6766   -2.3887    4.6972 H   0  0  0  0  0  0  0  0  0  0  0  0
   -1.1024   -2.6952    6.5826 H   0  0  0  0  0  0  0  0  0  0  0  0
    1.3398   -2.7871    6.1519 H   0  0  0  0  0  0  0  0  0  0  0  0
    2.1876   -2.5815    3.8405 H   0  0  0  0  0  0  0  0  0  0  0  0
   -0.4689    0.0886    2.2203 H   0  0  0  0  0  0  0  0  0  0  0  0
   -0.9598    1.9360    0.7036 H   0  0  0  0  0  0  0  0  0  0  0  0
   -2.8743    1.9550   -0.9284 H   0  0  0  0  0  0  0  0  0  0  0  0
   -4.3463    3.8727   -0.3988 H   0  0  0  0  0  0  0  0  0  0  0  0
   -3.5687    6.1856   -0.8309 H   0  0  0  0  0  0  0  0  0  0  0  0
   -1.3107    6.5710   -1.7866 H   0  0  0  0  0  0  0  0  0  0  0  0
    0.1418    4.6520   -2.3243 H   0  0  0  0  0  0  0  0  0  0  0  0
    0.0030    2.7361   -3.9509 H   0  0  0  0  0  0  0  0  0  0  0  0
    1.6726   -0.2799   -5.2320 H   0  0  0  0  0  0  0  0  0  0  0  0
    0.8943    1.2570   -5.6889 H   0  0  0  0  0  0  0  0  0  0  0  0
    2.5183    1.2480   -4.9963 H   0  0  0  0  0  0  0  0  0  0  0  0
  1  2  1  0
  2  3  1  0
  3  4  2  0
  4  5  1  0
  5  6  2  0
  6  7  1  0
  7  8  2  0
  8  9  1  0
  9 10  2  0
  4 11  1  0
 11 12  1  0
 12 13  2  0
 13 14  1  0
 14 15  2  0
 15 16  1  0
 16 17  2  0
 17 18  1  0
 18 19  2  0
 19 20  1  0
 20 21  2  0
 15 22  1  0
 22 23  2  0
 23 24  1  0
 23 25  1  0
 25 26  2  0
 26 27  1  0
 27 28  1  0
 28  2  2  0
 10  5  1  0
 27 11  2  0
 26 14  1  0
 21 16  1  0
  1 29  1  0
  1 30  1  0
  1 31  1  0
  3 32  1  0
  6 33  1  0
  7 34  1  0
  8 35  1  0
  9 36  1  0
 10 37  1  0
 12 38  1  0
 13 39  1  0
 17 40  1  0
 18 41  1  0
 19 42  1  0
 20 43  1  0
 21 44  1  0
 22 45  1  0
 24 46  1  0
 24 47  1  0
 24 48  1  0
M  END
$$$$

     RDKit          3D

 48 52  0  0  0  0  0  0  0  0999 V2000
    0.8579   -2.8552    4.3297 C   0  0  0  0  0  0  0  0  0  0  0  0
    0.8616   -1.8744    3.1987 C   0  0  0  0  0  0  0  0  0  0  0  0
    1.7854   -0.8198    3.2250 C   0  0  0  0  0  0  0  0  0  0  0  0
    1.8123    0.1138    2.2262 C   0  0  0  0  0  0  0  0  0  0  0  0
    2.7024    1.2927    2.3245 C   0  0  0  0  0  0  0  0  0  0  0  0
    4.0555    1.1395    2.6329 C   0  0  0  0  0  0  0  0  0  0  0  0
    4.8866    2.2389    2.7450 C   0  0  0  0  0  0  0  0  0  0  0  0
    4.3781    3.5245    2.5680 C   0  0  0  0  0  0  0  0  0  0  0  0
    3.0273    3.6911    2.2834 C   0  0  0  0  0  0  0  0  0  0  0  0
    2.1962    2.5824    2.1607 C   0  0  0  0  0  0  0  0  0  0  0  0
    0.9090   -0.0706    1.1180 C   0  0  0  0  0  0  0  0  0  0  0  0
    0.9305    0.7447   -0.0450 C   0  0  0  0  0  0  0  0  0  0  0  0
    0.0427    0.5620   -1.0553 C   0  0  0  0  0  0  0  0  0  0  0  0
   -0.9486   -0.4537   -0.9887 C   0  0  0  0  0  0  0  0  0  0  0  0
   -1.9243   -0.6711   -2.0123 C   0  0  0  0  0  0  0  0  0  0  0  0
   -2.0432    0.2100   -3.1965 C   0  0  0  0  0  0  0  0  0  0  0  0
   -2.2231    1.5872   -3.0487 C   0  0  0  0  0  0  0  0  0  0  0  0
   -2.3731    2.4038   -4.1597 C   0  0  0  0  0  0  0  0  0  0  0  0
   -2.3325    1.8635   -5.4400 C   0  0  0  0  0  0  0  0  0  0  0  0
   -2.1489    0.4902   -5.5947 C   0  0  0  0  0  0  0  0  0  0  0  0
   -2.0198   -0.3253   -4.4819 C   0  0  0  0  0  0  0  0  0  0  0  0
   -2.7801   -1.7396   -1.8649 C   0  0  0  0  0  0  0  0  0  0  0  0
   -2.7184   -2.5508   -0.7313 C   0  0  0  0  0  0  0  0  0  0  0  0
   -3.6719   -3.6907   -0.5657 C   0  0  0  0  0  0  0  0  0  0  0  0
   -1.8264   -2.3366    0.2492 N   0  0  0  0  0  0  0  0  0  0  0  0
   -0.9677   -1.3330    0.1251 C   0  0  0  0  0  0  0  0  0  0  0  0
    0.0028   -1.1464    1.1937 C   0  0  0  0  0  0  0  0  0  0  0  0
   -0.0154   -2.0247    2.2101 N   0  0  0  0  0  0  0  0  0  0  0  0
    1.8385   -3.3375    4.4224 H   0  0  0  0  0  0  0  0  0  0  0  0
    0.0982   -3.6110    4.1575 H   0  0  0  0  0  0  0  0  0  0  0  0
    0.6524   -2.3496    5.2744 H   0  0  0  0  0  0  0  0  0  0  0  0
    2.4757   -0.7437    4.0605 H   0  0  0  0  0  0  0  0  0  0  0  0
    4.4486    0.1431    2.7915 H   0  0  0  0  0  0  0  0  0  0  0  0
    5.9379    2.1019    2.9644 H   0  0  0  0  0  0  0  0  0  0  0  0
    5.0209    4.3854    2.6475 H   0  0  0  0  0  0  0  0  0  0  0  0
    2.6165    4.6890    2.1524 H   0  0  0  0  0  0  0  0  0  0  0  0
    1.1381    2.7175    1.9450 H   0  0  0  0  0  0  0  0  0  0  0  0
    1.6802    1.5111   -0.1236 H   0  0  0  0  0  0  0  0  0  0  0  0
    0.0942    1.1821   -1.9334 H   0  0  0  0  0  0  0  0  0  0  0  0
   -2.2527    2.0125   -2.0462 H   0  0  0  0  0  0  0  0  0  0  0  0
   -2.5241    3.4697   -4.0233 H   0  0  0  0  0  0  0  0  0  0  0  0
   -2.4299    2.5030   -6.3036 H   0  0  0  0  0  0  0  0  0  0  0  0
   -2.1031    0.0584   -6.5877 H   0  0  0  0  0  0  0  0  0  0  0  0
   -1.8994   -1.3964   -4.6051 H   0  0  0  0  0  0  0  0  0  0  0  0
   -3.5070   -1.9562   -2.6422 H   0  0  0  0  0  0  0  0  0  0  0  0
   -4.4832   -3.4077    0.1010 H   0  0  0  0  0  0  0  0  0  0  0  0
   -4.1022   -3.9858   -1.5324 H   0  0  0  0  0  0  0  0  0  0  0  0
   -3.1546   -4.5384   -0.1245 H   0  0  0  0  0  0  0  0  0  0  0  0
  1  2  1  0
  2  3  1  0
  3  4  2  0
  4  5  1  0
  5  6  2  0
  6  7  1  0
  7  8  2  0
  8  9  1  0
  9 10  2  0
  4 11  1  0
 11 12  1  0
 12 13  2  0
 13 14  1  0
 14 15  2  0
 15 16  1  0
 16 17  2  0
 17 18  1  0
 18 19  2  0
 19 20  1  0
 20 21  2  0
 15 22  1  0
 22 23  2  0
 23 24  1  0
 23 25  1  0
 25 26  2  0
 26 27  1  0
 27 28  1  0
 28  2  2  0
 10  5  1  0
 27 11  2  0
 26 14  1  0
 21 16  1  0
  1 29  1  0
  1 30  1  0
  1 31  1  0
  3 32  1  0
  6 33  1  0
  7 34  1  0
  8 35  1  0
  9 36  1  0
 10 37  1  0
 12 38  1  0
 13 39  1  0
 17 40  1  0
 18 41  1  0
 19 42  1  0
 20 43  1  0
 21 44  1  0
 22 45  1  0
 24 46  1  0
 24 47  1  0
 24 48  1  0
M  END
$$$$

     RDKit          3D

 48 52  0  0  0  0  0  0  0  0999 V2000
   -0.6917    3.5357    3.8136 C   0  0  0  0  0  0  0  0  0  0  0  0
   -0.7009    2.3500    2.9002 C   0  0  0  0  0  0  0  0  0  0  0  0
   -1.4748    1.2326    3.2478 C   0  0  0  0  0  0  0  0  0  0  0  0
   -1.5126    0.1275    2.4422 C   0  0  0  0  0  0  0  0  0  0  0  0
   -2.4220   -0.9986    2.7530 C   0  0  0  0  0  0  0  0  0  0  0  0
   -3.3636   -1.4431    1.8206 C   0  0  0  0  0  0  0  0  0  0  0  0
   -4.2587   -2.4561    2.1428 C   0  0  0  0  0  0  0  0  0  0  0  0
   -4.2195   -3.0542    3.3989 C   0  0  0  0  0  0  0  0  0  0  0  0
   -3.2757   -2.6223    4.3307 C   0  0  0  0  0  0  0  0  0  0  0  0
   -2.3897   -1.6025    4.0087 C   0  0  0  0  0  0  0  0  0  0  0  0
   -0.6702    0.1267    1.2760 C   0  0  0  0  0  0  0  0  0  0  0  0
   -0.4915   -1.0136    0.4486 C   0  0  0  0  0  0  0  0  0  0  0  0
    0.2920   -0.9610   -0.6623 C   0  0  0  0  0  0  0  0  0  0  0  0
    0.9633    0.2343   -1.0383 C   0  0  0  0  0  0  0  0  0  0  0  0
    1.7664    0.3526   -2.2137 C   0  0  0  0  0  0  0  0  0  0  0  0
    1.8968   -0.7392   -3.2019 C   0  0  0  0  0  0  0  0  0  0  0  0
    0.7722   -1.3129   -3.7987 C   0  0  0  0  0  0  0  0  0  0  0  0
    0.9137   -2.2962   -4.7704 C   0  0  0  0  0  0  0  0  0  0  0  0
    2.1793   -2.7263   -5.1582 C   0  0  0  0  0  0  0  0  0  0  0  0
    3.3061   -2.1595   -4.5640 C   0  0  0  0  0  0  0  0  0  0  0  0
    3.1590   -1.1755   -3.5962 C   0  0  0  0  0  0  0  0  0  0  0  0
    2.4172    1.5451   -2.4285 C   0  0  0  0  0  0  0  0  0  0  0  0
    2.2586    2.6153   -1.5486 C   0  0  0  0  0  0  0  0  0  0  0  0
    2.9832    3.8961   -1.8192 C   0  0  0  0  0  0  0  0  0  0  0  0
    1.4812    2.5299   -0.4585 N   0  0  0  0  0  0  0  0  0  0  0  0
    0.8658    1.3779   -0.2036 C   0  0  0  0  0  0  0  0  0  0  0  0
    0.0500    1.3070    0.9978 C   0  0  0  0  0  0  0  0  0  0  0  0
    0.0358    2.3887    1.7945 N   0  0  0  0  0  0  0  0  0  0  0  0
   -0.1086    4.3359    3.3626 H   0  0  0  0  0  0  0  0  0  0  0  0
   -1.7091    3.8948    4.0006 H   0  0  0  0  0  0  0  0  0  0  0  0
   -0.2521    3.2696    4.7777 H   0  0  0  0  0  0  0  0  0  0  0  0
   -2.0554    1.2571    4.1652 H   0  0  0  0  0  0  0  0  0  0  0  0
   -3.3885   -0.9819    0.8329 H   0  0  0  0  0  0  0  0  0  0  0  0
   -4.9948   -2.7778    1.4129 H   0  0  0  0  0  0  0  0  0  0  0  0
   -4.9029   -3.8468    3.6440 H   0  0  0  0  0  0  0  0  0  0  0  0
   -3.2282   -3.0835    5.3083 H   0  0  0  0  0  0  0  0  0  0  0  0
   -1.6639   -1.2628    4.7384 H   0  0  0  0  0  0  0  0  0  0  0  0
   -0.9776   -1.9313    0.7235 H   0  0  0  0  0  0  0  0  0  0  0  0
    0.4090   -1.8383   -1.2758 H   0  0  0  0  0  0  0  0  0  0  0  0
   -0.2178   -0.9685   -3.4943 H   0  0  0  0  0  0  0  0  0  0  0  0
    0.0293   -2.7257   -5.2315 H   0  0  0  0  0  0  0  0  0  0  0  0
    2.2842   -3.4937   -5.9066 H   0  0  0  0  0  0  0  0  0  0  0  0
    4.2945   -2.4882   -4.8534 H   0  0  0  0  0  0  0  0  0  0  0  0
    4.0388   -0.7325   -3.1456 H   0  0  0  0  0  0  0  0  0  0  0  0
    3.0577    1.6604   -3.2983 H   0  0  0  0  0  0  0  0  0  0  0  0
    4.0630    3.7495   -1.7324 H   0  0  0  0  0  0  0  0  0  0  0  0
    2.7856    4.2513   -2.8339 H   0  0  0  0  0  0  0  0  0  0  0  0
    2.6671    4.6542   -1.1074 H   0  0  0  0  0  0  0  0  0  0  0  0
  1  2  1  0
  2  3  1  0
  3  4  2  0
  4  5  1  0
  5  6  2  0
  6  7  1  0
  7  8  2  0
  8  9  1  0
  9 10  2  0
  4 11  1  0
 11 12  1  0
 12 13  2  0
 13 14  1  0
 14 15  2  0
 15 16  1  0
 16 17  2  0
 17 18  1  0
 18 19  2  0
 19 20  1  0
 20 21  2  0
 15 22  1  0
 22 23  2  0
 23 24  1  0
 23 25  1  0
 25 26  2  0
 26 27  1  0
 27 28  1  0
 28  2  2  0
 10  5  1  0
 27 11  2  0
 26 14  1  0
 21 16  1  0
  1 29  1  0
  1 30  1  0
  1 31  1  0
  3 32  1  0
  6 33  1  0
  7 34  1  0
  8 35  1  0
  9 36  1  0
 10 37  1  0
 12 38  1  0
 13 39  1  0
 17 40  1  0
 18 41  1  0
 19 42  1  0
 20 43  1  0
 21 44  1  0
 22 45  1  0
 24 46  1  0
 24 47  1  0
 24 48  1  0
M  END
$$$$

     RDKit          3D

 48 52  0  0  0  0  0  0  0  0999 V2000
   -0.0642   -3.5533    3.8759 C   0  0  0  0  0  0  0  0  0  0  0  0
   -0.1250   -2.8017    2.5810 C   0  0  0  0  0  0  0  0  0  0  0  0
   -0.1981   -3.5148    1.3731 C   0  0  0  0  0  0  0  0  0  0  0  0
   -0.2323   -2.8511    0.1744 C   0  0  0  0  0  0  0  0  0  0  0  0
   -0.2117   -3.5974   -1.1026 C   0  0  0  0  0  0  0  0  0  0  0  0
    0.7969   -3.3877   -2.0457 C   0  0  0  0  0  0  0  0  0  0  0  0
    0.8200   -4.1183   -3.2279 C   0  0  0  0  0  0  0  0  0  0  0  0
   -0.1661   -5.0666   -3.4894 C   0  0  0  0  0  0  0  0  0  0  0  0
   -1.1704   -5.2833   -2.5471 C   0  0  0  0  0  0  0  0  0  0  0  0
   -1.1893   -4.5549   -1.3675 C   0  0  0  0  0  0  0  0  0  0  0  0
   -0.2590   -1.4137    0.2014 C   0  0  0  0  0  0  0  0  0  0  0  0
   -0.4042   -0.6179   -0.9668 C   0  0  0  0  0  0  0  0  0  0  0  0
   -0.3198    0.7362   -0.9113 C   0  0  0  0  0  0  0  0  0  0  0  0
   -0.1102    1.4056    0.3254 C   0  0  0  0  0  0  0  0  0  0  0  0
    0.0719    2.8193    0.4334 C   0  0  0  0  0  0  0  0  0  0  0  0
    0.2570    3.6865   -0.7535 C   0  0  0  0  0  0  0  0  0  0  0  0
    1.1706    3.3496   -1.7603 C   0  0  0  0  0  0  0  0  0  0  0  0
    1.3511    4.1803   -2.8586 C   0  0  0  0  0  0  0  0  0  0  0  0
    0.6229    5.3590   -2.9773 C   0  0  0  0  0  0  0  0  0  0  0  0
   -0.2824    5.7064   -1.9743 C   0  0  0  0  0  0  0  0  0  0  0  0
   -0.4535    4.8795   -0.8748 C   0  0  0  0  0  0  0  0  0  0  0  0
    0.1009    3.3616    1.6976 C   0  0  0  0  0  0  0  0  0  0  0  0
   -0.0039    2.5478    2.8267 C   0  0  0  0  0  0  0  0  0  0  0  0
   -0.0051    3.1741    4.1862 C   0  0  0  0  0  0  0  0  0  0  0  0
   -0.0978    1.2123    2.7396 N   0  0  0  0  0  0  0  0  0  0  0  0
   -0.1228    0.6585    1.5312 C   0  0  0  0  0  0  0  0  0  0  0  0
   -0.1697   -0.7931    1.4608 C   0  0  0  0  0  0  0  0  0  0  0  0
   -0.1074   -1.4730    2.6163 N   0  0  0  0  0  0  0  0  0  0  0  0
    0.7347   -4.2959    3.8605 H   0  0  0  0  0  0  0  0  0  0  0  0
    0.1163   -2.8583    4.6933 H   0  0  0  0  0  0  0  0  0  0  0  0
   -1.0063   -4.0789    4.0566 H   0  0  0  0  0  0  0  0  0  0  0  0
   -0.2163   -4.6004    1.3927 H   0  0  0  0  0  0  0  0  0  0  0  0
    1.5692   -2.6469   -1.8402 H   0  0  0  0  0  0  0  0  0  0  0  0
    1.6082   -3.9434   -3.9543 H   0  0  0  0  0  0  0  0  0  0  0  0
   -0.1531   -5.6225   -4.4098 H   0  0  0  0  0  0  0  0  0  0  0  0
   -1.9425   -6.0175   -2.7378 H   0  0  0  0  0  0  0  0  0  0  0  0
   -1.9674   -4.7329   -0.6349 H   0  0  0  0  0  0  0  0  0  0  0  0
   -0.5883   -1.1106   -1.9069 H   0  0  0  0  0  0  0  0  0  0  0  0
   -0.4192    1.3245   -1.8087 H   0  0  0  0  0  0  0  0  0  0  0  0
    1.7468    2.4271   -1.6674 H   0  0  0  0  0  0  0  0  0  0  0  0
    2.0701    3.9051   -3.6265 H   0  0  0  0  0  0  0  0  0  0  0  0
    0.7496    5.9899   -3.8414 H   0  0  0  0  0  0  0  0  0  0  0  0
   -0.8608    6.6174   -2.0596 H   0  0  0  0  0  0  0  0  0  0  0  0
   -1.1501    5.1585   -0.0931 H   0  0  0  0  0  0  0  0  0  0  0  0
    0.2253    4.4315    1.8241 H   0  0  0  0  0  0  0  0  0  0  0  0
   -0.1324    2.4019    4.9379 H   0  0  0  0  0  0  0  0  0  0  0  0
   -0.8159    3.9030    4.2806 H   0  0  0  0  0  0  0  0  0  0  0  0
    0.9341    3.6988    4.3693 H   0  0  0  0  0  0  0  0  0  0  0  0
  1  2  1  0
  2  3  1  0
  3  4  2  0
  4  5  1  0
  5  6  2  0
  6  7  1  0
  7  8  2  0
  8  9  1  0
  9 10  2  0
  4 11  1  0
 11 12  1  0
 12 13  2  0
 13 14  1  0
 14 15  2  0
 15 16  1  0
 16 17  2  0
 17 18  1  0
 18 19  2  0
 19 20  1  0
 20 21  2  0
 15 22  1  0
 22 23  2  0
 23 24  1  0
 23 25  1  0
 25 26  2  0
 26 27  1  0
 27 28  1  0
 28  2  2  0
 10  5  1  0
 27 11  2  0
 26 14  1  0
 21 16  1  0
  1 29  1  0
  1 30  1  0
  1 31  1  0
  3 32  1  0
  6 33  1  0
  7 34  1  0
  8 35  1  0
  9 36  1  0
 10 37  1  0
 12 38  1  0
 13 39  1  0
 17 40  1  0
 18 41  1  0
 19 42  1  0
 20 43  1  0
 21 44  1  0
 22 45  1  0
 24 46  1  0
 24 47  1  0
 24 48  1  0
M  END
$$$$

     RDKit          3D

 48 52  0  0  0  0  0  0  0  0999 V2000
    4.3923    0.4762    2.8381 C   0  0  0  0  0  0  0  0  0  0  0  0
    3.1508    0.6713    2.0270 C   0  0  0  0  0  0  0  0  0  0  0  0
    2.8121    1.9630    1.5920 C   0  0  0  0  0  0  0  0  0  0  0  0
    1.6973    2.1746    0.8268 C   0  0  0  0  0  0  0  0  0  0  0  0
    1.3919    3.5199    0.2883 C   0  0  0  0  0  0  0  0  0  0  0  0
    1.1902    3.7237   -1.0824 C   0  0  0  0  0  0  0  0  0  0  0  0
    0.9210    4.9927   -1.5767 C   0  0  0  0  0  0  0  0  0  0  0  0
    0.8514    6.0861   -0.7147 C   0  0  0  0  0  0  0  0  0  0  0  0
    1.0560    5.8895    0.6504 C   0  0  0  0  0  0  0  0  0  0  0  0
    1.3336    4.6219    1.1419 C   0  0  0  0  0  0  0  0  0  0  0  0
    0.8596    1.0404    0.5436 C   0  0  0  0  0  0  0  0  0  0  0  0
   -0.3753    1.1383   -0.1511 C   0  0  0  0  0  0  0  0  0  0  0  0
   -1.1032    0.0319   -0.4598 C   0  0  0  0  0  0  0  0  0  0  0  0
   -0.6727   -1.2653   -0.0696 C   0  0  0  0  0  0  0  0  0  0  0  0
   -1.3753   -2.4645   -0.4015 C   0  0  0  0  0  0  0  0  0  0  0  0
   -2.5352   -2.4784   -1.3213 C   0  0  0  0  0  0  0  0  0  0  0  0
   -2.4541   -1.9189   -2.5975 C   0  0  0  0  0  0  0  0  0  0  0  0
   -3.5374   -1.9764   -3.4649 C   0  0  0  0  0  0  0  0  0  0  0  0
   -4.7225   -2.5902   -3.0691 C   0  0  0  0  0  0  0  0  0  0  0  0
   -4.8105   -3.1536   -1.7967 C   0  0  0  0  0  0  0  0  0  0  0  0
   -3.7245   -3.0966   -0.9359 C   0  0  0  0  0  0  0  0  0  0  0  0
   -0.9321   -3.6389    0.1596 C   0  0  0  0  0  0  0  0  0  0  0  0
    0.1944   -3.6556    0.9827 C   0  0  0  0  0  0  0  0  0  0  0  0
    0.6318   -4.9464    1.5978 C   0  0  0  0  0  0  0  0  0  0  0  0
    0.9014   -2.5491    1.2486 N   0  0  0  0  0  0  0  0  0  0  0  0
    0.4906   -1.3944    0.7312 C   0  0  0  0  0  0  0  0  0  0  0  0
    1.2872   -0.2143    1.0221 C   0  0  0  0  0  0  0  0  0  0  0  0
    2.4074   -0.3943    1.7402 N   0  0  0  0  0  0  0  0  0  0  0  0
    4.5879   -0.5894    2.9515 H   0  0  0  0  0  0  0  0  0  0  0  0
    4.2869    0.9236    3.8262 H   0  0  0  0  0  0  0  0  0  0  0  0
    5.2530    0.9466    2.3538 H   0  0  0  0  0  0  0  0  0  0  0  0
    3.4551    2.7965    1.8594 H   0  0  0  0  0  0  0  0  0  0  0  0
    1.2560    2.8713   -1.7630 H   0  0  0  0  0  0  0  0  0  0  0  0
    0.7637    5.1312   -2.6430 H   0  0  0  0  0  0  0  0  0  0  0  0
    0.6269    7.0647   -1.0993 H   0  0  0  0  0  0  0  0  0  0  0  0
    0.9931    6.7269    1.3352 H   0  0  0  0  0  0  0  0  0  0  0  0
    1.5108    4.4799    2.1998 H   0  0  0  0  0  0  0  0  0  0  0  0
   -0.7313    2.1122   -0.4343 H   0  0  0  0  0  0  0  0  0  0  0  0
   -2.0208    0.1248   -1.0104 H   0  0  0  0  0  0  0  0  0  0  0  0
   -1.5246   -1.4438   -2.9135 H   0  0  0  0  0  0  0  0  0  0  0  0
   -3.4551   -1.5400   -4.4555 H   0  0  0  0  0  0  0  0  0  0  0  0
   -5.5617   -2.6298   -3.7409 H   0  0  0  0  0  0  0  0  0  0  0  0
   -5.7279   -3.6325   -1.4796 H   0  0  0  0  0  0  0  0  0  0  0  0
   -3.7940   -3.5401    0.0510 H   0  0  0  0  0  0  0  0  0  0  0  0
   -1.4557   -4.5669   -0.0461 H   0  0  0  0  0  0  0  0  0  0  0  0
    0.7568   -5.7172    0.8316 H   0  0  0  0  0  0  0  0  0  0  0  0
   -0.1180   -5.3075    2.3069 H   0  0  0  0  0  0  0  0  0  0  0  0
    1.5725   -4.8027    2.1214 H   0  0  0  0  0  0  0  0  0  0  0  0
  1  2  1  0
  2  3  1  0
  3  4  2  0
  4  5  1  0
  5  6  2  0
  6  7  1  0
  7  8  2  0
  8  9  1  0
  9 10  2  0
  4 11  1  0
 11 12  1  0
 12 13  2  0
 13 14  1  0
 14 15  2  0
 15 16  1  0
 16 17  2  0
 17 18  1  0
 18 19  2  0
 19 20  1  0
 20 21  2  0
 15 22  1  0
 22 23  2  0
 23 24  1  0
 23 25  1  0
 25 26  2  0
 26 27  1  0
 27 28  1  0
 28  2  2  0
 10  5  1  0
 27 11  2  0
 26 14  1  0
 21 16  1  0
  1 29  1  0
  1 30  1  0
  1 31  1  0
  3 32  1  0
  6 33  1  0
  7 34  1  0
  8 35  1  0
  9 36  1  0
 10 37  1  0
 12 38  1  0
 13 39  1  0
 17 40  1  0
 18 41  1  0
 19 42  1  0
 20 43  1  0
 21 44  1  0
 22 45  1  0
 24 46  1  0
 24 47  1  0
 24 48  1  0
M  END
$$$$
