
     RDKit          3D

 26 27  0  0  0  0  0  0  0  0999 V2000
   -2.7318    1.0581    3.2760 C   0  0  0  0  0  0  0  0  0  0  0  0
   -1.5955    1.2409    2.3251 C   0  0  0  0  0  0  0  0  0  0  0  0
   -0.7900    2.3805    2.3812 C   0  0  0  0  0  0  0  0  0  0  0  0
    0.2685    2.5071    1.4921 C   0  0  0  0  0  0  0  0  0  0  0  0
    0.5776    1.6016    0.5666 N   0  0  0  0  0  0  0  0  0  0  0  0
   -0.1956    0.5040    0.5058 C   0  0  0  0  0  0  0  0  0  0  0  0
    0.1601   -0.5040   -0.5325 C   0  0  0  0  0  0  0  0  0  0  0  0
    1.2591   -0.2974   -1.3533 C   0  0  0  0  0  0  0  0  0  0  0  0
    1.5958   -1.2421   -2.3232 C   0  0  0  0  0  0  0  0  0  0  0  0
    2.7778   -1.0749   -3.2183 C   0  0  0  0  0  0  0  0  0  0  0  0
    0.7746   -2.3672   -2.4145 C   0  0  0  0  0  0  0  0  0  0  0  0
   -0.3066   -2.4878   -1.5519 C   0  0  0  0  0  0  0  0  0  0  0  0
   -0.6248   -1.5881   -0.6205 N   0  0  0  0  0  0  0  0  0  0  0  0
   -1.2736    0.2911    1.3528 C   0  0  0  0  0  0  0  0  0  0  0  0
   -3.4026    1.9187    3.2592 H   0  0  0  0  0  0  0  0  0  0  0  0
   -3.3194    0.1673    3.0399 H   0  0  0  0  0  0  0  0  0  0  0  0
   -2.3679    0.9585    4.2974 H   0  0  0  0  0  0  0  0  0  0  0  0
   -0.9917    3.1582    3.1108 H   0  0  0  0  0  0  0  0  0  0  0  0
    0.9078    3.3866    1.5150 H   0  0  0  0  0  0  0  0  0  0  0  0
    1.8564    0.5997   -1.2350 H   0  0  0  0  0  0  0  0  0  0  0  0
    2.4710   -1.0034   -4.2627 H   0  0  0  0  0  0  0  0  0  0  0  0
    3.4477   -1.9301   -3.1405 H   0  0  0  0  0  0  0  0  0  0  0  0
    3.3458   -0.1745   -2.9721 H   0  0  0  0  0  0  0  0  0  0  0  0
    0.9819   -3.1363   -3.1514 H   0  0  0  0  0  0  0  0  0  0  0  0
   -0.9574   -3.3562   -1.5977 H   0  0  0  0  0  0  0  0  0  0  0  0
   -1.8674   -0.6105    1.2518 H   0  0  0  0  0  0  0  0  0  0  0  0
  1  2  1  0
  2  3  2  0
  3  4  1  0
  4  5  2  0
  5  6  1  0
  6  7  1  0
  7  8  2  0
  8  9  1  0
  9 10  1  0
  9 11  2  0
 11 12  1  0
 12 13  2  0
  6 14  2  0
 14  2  1  0
 13  7  1  0
  1 15  1  0
  1 16  1  0
  1 17  1  0
  3 18  1  0
  4 19  1  0
  8 20  1  0
 10 21  1  0
 10 22  1  0
 10 23  1  0
 11 24  1  0
 12 25  1  0
 14 26  1  0
M  END
$$$$

     RDKit          3D

 26 27  0  0  0  0  0  0  0  0999 V2000
    3.2846   -0.3738    2.8917 C   0  0  0  0  0  0  0  0  0  0  0  0
    1.8776   -0.1768    2.4350 C   0  0  0  0  0  0  0  0  0  0  0  0
    0.8406    0.0041    3.3527 C   0  0  0  0  0  0  0  0  0  0  0  0
   -0.4566    0.1632    2.8855 C   0  0  0  0  0  0  0  0  0  0  0  0
   -0.7930    0.1638    1.5971 N   0  0  0  0  0  0  0  0  0  0  0  0
    0.2014   -0.0047    0.7107 C   0  0  0  0  0  0  0  0  0  0  0  0
   -0.1838    0.0010   -0.7291 C   0  0  0  0  0  0  0  0  0  0  0  0
   -1.5136    0.1527   -1.0905 C   0  0  0  0  0  0  0  0  0  0  0  0
   -1.8751    0.1681   -2.4384 C   0  0  0  0  0  0  0  0  0  0  0  0
   -3.2930    0.3590   -2.8670 C   0  0  0  0  0  0  0  0  0  0  0  0
   -0.8437    0.0147   -3.3661 C   0  0  0  0  0  0  0  0  0  0  0  0
    0.4598   -0.1345   -2.9116 C   0  0  0  0  0  0  0  0  0  0  0  0
    0.8057   -0.1449   -1.6242 N   0  0  0  0  0  0  0  0  0  0  0  0
    1.5261   -0.1734    1.0843 C   0  0  0  0  0  0  0  0  0  0  0  0
    3.5927    0.4246    3.5685 H   0  0  0  0  0  0  0  0  0  0  0  0
    3.9850   -0.3918    2.0526 H   0  0  0  0  0  0  0  0  0  0  0  0
    3.3906   -1.3128    3.4371 H   0  0  0  0  0  0  0  0  0  0  0  0
    1.0509    0.0217    4.4179 H   0  0  0  0  0  0  0  0  0  0  0  0
   -1.2824    0.2967    3.5788 H   0  0  0  0  0  0  0  0  0  0  0  0
   -2.2743    0.2549   -0.3251 H   0  0  0  0  0  0  0  0  0  0  0  0
   -3.4912   -0.1291   -3.8231 H   0  0  0  0  0  0  0  0  0  0  0  0
   -3.5240    1.4176   -2.9863 H   0  0  0  0  0  0  0  0  0  0  0  0
   -3.9919   -0.0464   -2.1324 H   0  0  0  0  0  0  0  0  0  0  0  0
   -1.0596    0.0112   -4.4297 H   0  0  0  0  0  0  0  0  0  0  0  0
    1.2803   -0.2631   -3.6137 H   0  0  0  0  0  0  0  0  0  0  0  0
    2.2873   -0.3019    0.3254 H   0  0  0  0  0  0  0  0  0  0  0  0
  1  2  1  0
  2  3  2  0
  3  4  1  0
  4  5  2  0
  5  6  1  0
  6  7  1  0
  7  8  2  0
  8  9  1  0
  9 10  1  0
  9 11  2  0
 11 12  1  0
 12 13  2  0
  6 14  2  0
 14  2  1  0
 13  7  1  0
  1 15  1  0
  1 16  1  0
  1 17  1  0
  3 18  1  0
  4 19  1  0
  8 20  1  0
 10 21  1  0
 10 22  1  0
 10 23  1  0
 11 24  1  0
 12 25  1  0
 14 26  1  0
M  END
$$$$

     RDKit          3D

 26 27  0  0  0  0  0  0  0  0999 V2000
    1.7747    3.7549    1.4096 C   0  0  0  0  0  0  0  0  0  0  0  0
    1.5870    2.5927    0.4917 C   0  0  0  0  0  0  0  0  0  0  0  0
    2.3548    2.4544   -0.6659 C   0  0  0  0  0  0  0  0  0  0  0  0
    2.1442    1.3584   -1.4917 C   0  0  0  0  0  0  0  0  0  0  0  0
    1.2394    0.4062   -1.2577 N   0  0  0  0  0  0  0  0  0  0  0  0
    0.5003    0.5353   -0.1449 C   0  0  0  0  0  0  0  0  0  0  0  0
   -0.5084   -0.5281    0.1218 C   0  0  0  0  0  0  0  0  0  0  0  0
   -0.6282   -1.6116   -0.7350 C   0  0  0  0  0  0  0  0  0  0  0  0
   -1.5766   -2.6039   -0.4789 C   0  0  0  0  0  0  0  0  0  0  0  0
   -1.7489   -3.7822   -1.3773 C   0  0  0  0  0  0  0  0  0  0  0  0
   -2.3708   -2.4375    0.6577 C   0  0  0  0  0  0  0  0  0  0  0  0
   -2.1791   -1.3206    1.4581 C   0  0  0  0  0  0  0  0  0  0  0  0
   -1.2733   -0.3756    1.2163 N   0  0  0  0  0  0  0  0  0  0  0  0
    0.6442    1.5948    0.7399 C   0  0  0  0  0  0  0  0  0  0  0  0
    1.0989    3.7091    2.2675 H   0  0  0  0  0  0  0  0  0  0  0  0
    1.5935    4.6968    0.8889 H   0  0  0  0  0  0  0  0  0  0  0  0
    2.7947    3.7894    1.7898 H   0  0  0  0  0  0  0  0  0  0  0  0
    3.1016    3.2004   -0.9203 H   0  0  0  0  0  0  0  0  0  0  0  0
    2.7255    1.2310   -2.4010 H   0  0  0  0  0  0  0  0  0  0  0  0
    0.0199   -1.6859   -1.6010 H   0  0  0  0  0  0  0  0  0  0  0  0
   -0.8650   -3.9461   -1.9990 H   0  0  0  0  0  0  0  0  0  0  0  0
   -1.9296   -4.6920   -0.8042 H   0  0  0  0  0  0  0  0  0  0  0  0
   -2.6024   -3.6448   -2.0428 H   0  0  0  0  0  0  0  0  0  0  0  0
   -3.1298   -3.1717    0.9078 H   0  0  0  0  0  0  0  0  0  0  0  0
   -2.7822   -1.1684    2.3505 H   0  0  0  0  0  0  0  0  0  0  0  0
    0.0157    1.6451    1.6202 H   0  0  0  0  0  0  0  0  0  0  0  0
  1  2  1  0
  2  3  2  0
  3  4  1  0
  4  5  2  0
  5  6  1  0
  6  7  1  0
  7  8  2  0
  8  9  1  0
  9 10  1  0
  9 11  2  0
 11 12  1  0
 12 13  2  0
  6 14  2  0
 14  2  1  0
 13  7  1  0
  1 15  1  0
  1 16  1  0
  1 17  1  0
  3 18  1  0
  4 19  1  0
  8 20  1  0
 10 21  1  0
 10 22  1  0
 10 23  1  0
 11 24  1  0
 12 25  1  0
 14 26  1  0
M  END
$$$$

     RDKit          3D

 26 27  0  0  0  0  0  0  0  0999 V2000
    1.7781    1.2999   -3.7938 C   0  0  0  0  0  0  0  0  0  0  0  0
    1.0994    0.3584   -2.8549 C   0  0  0  0  0  0  0  0  0  0  0  0
    0.7377   -0.9278   -3.2592 C   0  0  0  0  0  0  0  0  0  0  0  0
    0.0953   -1.7654   -2.3576 C   0  0  0  0  0  0  0  0  0  0  0  0
   -0.2010   -1.4264   -1.1035 N   0  0  0  0  0  0  0  0  0  0  0  0
    0.1492   -0.1910   -0.7092 C   0  0  0  0  0  0  0  0  0  0  0  0
   -0.1755    0.1853    0.6958 C   0  0  0  0  0  0  0  0  0  0  0  0
   -0.8031   -0.7193    1.5408 C   0  0  0  0  0  0  0  0  0  0  0  0
   -1.0927   -0.3630    2.8594 C   0  0  0  0  0  0  0  0  0  0  0  0
   -1.7692   -1.2932    3.8109 C   0  0  0  0  0  0  0  0  0  0  0  0
   -0.7182    0.9220    3.2563 C   0  0  0  0  0  0  0  0  0  0  0  0
   -0.1016    1.7615    2.3396 C   0  0  0  0  0  0  0  0  0  0  0  0
    0.1738    1.4234    1.0817 N   0  0  0  0  0  0  0  0  0  0  0  0
    0.7888    0.7155   -1.5422 C   0  0  0  0  0  0  0  0  0  0  0  0
    2.0337    2.2437   -3.3058 H   0  0  0  0  0  0  0  0  0  0  0  0
    2.6951    0.8668   -4.1906 H   0  0  0  0  0  0  0  0  0  0  0  0
    1.1362    1.5276   -4.6457 H   0  0  0  0  0  0  0  0  0  0  0  0
    0.9565   -1.2671   -4.2663 H   0  0  0  0  0  0  0  0  0  0  0  0
   -0.2023   -2.7697   -2.6499 H   0  0  0  0  0  0  0  0  0  0  0  0
   -1.0606   -1.7054    1.1721 H   0  0  0  0  0  0  0  0  0  0  0  0
   -1.8743   -2.2957    3.3892 H   0  0  0  0  0  0  0  0  0  0  0  0
   -2.7641   -0.9340    4.0706 H   0  0  0  0  0  0  0  0  0  0  0  0
   -1.2063   -1.3760    4.7400 H   0  0  0  0  0  0  0  0  0  0  0  0
   -0.9082    1.2596    4.2703 H   0  0  0  0  0  0  0  0  0  0  0  0
    0.1922    2.7682    2.6240 H   0  0  0  0  0  0  0  0  0  0  0  0
    1.0413    1.7022   -1.1719 H   0  0  0  0  0  0  0  0  0  0  0  0
  1  2  1  0
  2  3  2  0
  3  4  1  0
  4  5  2  0
  5  6  1  0
  6  7  1  0
  7  8  2  0
  8  9  1  0
  9 10  1  0
  9 11  2  0
 11 12  1  0
 12 13  2  0
  6 14  2  0
 14  2  1  0
 13  7  1  0
  1 15  1  0
  1 16  1  0
  1 17  1  0
  3 18  1  0
  4 19  1  0
  8 20  1  0
 10 21  1  0
 10 22  1  0
 10 23  1  0
 11 24  1  0
 12 25  1  0
 14 26  1  0
M  END
$$$$

     RDKit          3D

 26 27  0  0  0  0  0  0  0  0999 V2000
    2.8037   -2.6051    2.1387 C   0  0  0  0  0  0  0  0  0  0  0  0
    1.8732   -1.4514    1.9677 C   0  0  0  0  0  0  0  0  0  0  0  0
    1.6377   -0.5506    3.0078 C   0  0  0  0  0  0  0  0  0  0  0  0
    0.7610    0.5055    2.8018 C   0  0  0  0  0  0  0  0  0  0  0  0
    0.1153    0.7320    1.6583 N   0  0  0  0  0  0  0  0  0  0  0  0
    0.3421   -0.1286    0.6541 C   0  0  0  0  0  0  0  0  0  0  0  0
   -0.3679    0.1278   -0.6303 C   0  0  0  0  0  0  0  0  0  0  0  0
   -1.2206    1.2137   -0.7564 C   0  0  0  0  0  0  0  0  0  0  0  0
   -1.8776    1.4486   -1.9666 C   0  0  0  0  0  0  0  0  0  0  0  0
   -2.7911    2.6126   -2.1623 C   0  0  0  0  0  0  0  0  0  0  0  0
   -1.6277    0.5469   -3.0034 C   0  0  0  0  0  0  0  0  0  0  0  0
   -0.7598   -0.5125   -2.7840 C   0  0  0  0  0  0  0  0  0  0  0  0
   -0.1302   -0.7359   -1.6316 N   0  0  0  0  0  0  0  0  0  0  0  0
    1.1963   -1.2153    0.7702 C   0  0  0  0  0  0  0  0  0  0  0  0
    2.3688   -3.3656    2.7871 H   0  0  0  0  0  0  0  0  0  0  0  0
    3.7408   -2.2878    2.5954 H   0  0  0  0  0  0  0  0  0  0  0  0
    3.0384   -3.0788    1.1814 H   0  0  0  0  0  0  0  0  0  0  0  0
    2.1348   -0.6755    3.9650 H   0  0  0  0  0  0  0  0  0  0  0  0
    0.5607    1.2187    3.5972 H   0  0  0  0  0  0  0  0  0  0  0  0
   -1.3781    1.8753    0.0893 H   0  0  0  0  0  0  0  0  0  0  0  0
   -3.1498    3.0086   -1.2110 H   0  0  0  0  0  0  0  0  0  0  0  0
   -3.6616    2.3341   -2.7615 H   0  0  0  0  0  0  0  0  0  0  0  0
   -2.2840    3.4182   -2.6905 H   0  0  0  0  0  0  0  0  0  0  0  0
   -2.1088    0.6748   -3.9683 H   0  0  0  0  0  0  0  0  0  0  0  0
   -0.5536   -1.2319   -3.5729 H   0  0  0  0  0  0  0  0  0  0  0  0
    1.3379   -1.8777   -0.0754 H   0  0  0  0  0  0  0  0  0  0  0  0
  1  2  1  0
  2  3  2  0
  3  4  1  0
  4  5  2  0
  5  6  1  0
  6  7  1  0
  7  8  2  0
  8  9  1  0
  9 10  1  0
  9 11  2  0
 11 12  1  0
 12 13  2  0
  6 14  2  0
 14  2  1  0
 13  7  1  0
  1 15  1  0
  1 16  1  0
  1 17  1  0
  3 18  1  0
  4 19  1  0
  8 20  1  0
 10 21  1  0
 10 22  1  0
 10 23  1  0
 11 24  1  0
 12 25  1  0
 14 26  1  0
M  END
$$$$

     RDKit          3D

 26 27  0  0  0  0  0  0  0  0999 V2000
   -0.4715    1.2601   -4.1766 C   0  0  0  0  0  0  0  0  0  0  0  0
   -0.6830    1.3113   -2.7013 C   0  0  0  0  0  0  0  0  0  0  0  0
   -1.5121    2.2781   -2.1282 C   0  0  0  0  0  0  0  0  0  0  0  0
   -1.6840    2.2911   -0.7520 C   0  0  0  0  0  0  0  0  0  0  0  0
   -1.1076    1.4252    0.0813 N   0  0  0  0  0  0  0  0  0  0  0  0
   -0.3148    0.4901   -0.4657 C   0  0  0  0  0  0  0  0  0  0  0  0
    0.3266   -0.4796    0.4668 C   0  0  0  0  0  0  0  0  0  0  0  0
    0.0697   -0.4143    1.8287 C   0  0  0  0  0  0  0  0  0  0  0  0
    0.6805   -1.3169    2.7007 C   0  0  0  0  0  0  0  0  0  0  0  0
    0.4456   -1.2829    4.1743 C   0  0  0  0  0  0  0  0  0  0  0  0
    1.5327   -2.2618    2.1285 C   0  0  0  0  0  0  0  0  0  0  0  0
    1.7226   -2.2599    0.7543 C   0  0  0  0  0  0  0  0  0  0  0  0
    1.1409   -1.3968   -0.0806 N   0  0  0  0  0  0  0  0  0  0  0  0
   -0.0822    0.4022   -1.8301 C   0  0  0  0  0  0  0  0  0  0  0  0
    0.2023    0.4515   -4.4646 H   0  0  0  0  0  0  0  0  0  0  0  0
   -1.4171    1.1158   -4.6972 H   0  0  0  0  0  0  0  0  0  0  0  0
   -0.0477    2.1978   -4.5425 H   0  0  0  0  0  0  0  0  0  0  0  0
   -2.0145    3.0085   -2.7550 H   0  0  0  0  0  0  0  0  0  0  0  0
   -2.3267    3.0299   -0.2797 H   0  0  0  0  0  0  0  0  0  0  0  0
   -0.6104    0.3373    2.2123 H   0  0  0  0  0  0  0  0  0  0  0  0
   -0.4653   -0.7353    4.4258 H   0  0  0  0  0  0  0  0  0  0  0  0
    0.3595   -2.2927    4.5796 H   0  0  0  0  0  0  0  0  0  0  0  0
    1.2762   -0.7999    4.6935 H   0  0  0  0  0  0  0  0  0  0  0  0
    2.0371   -2.9907    2.7551 H   0  0  0  0  0  0  0  0  0  0  0  0
    2.3790   -2.9893    0.2862 H   0  0  0  0  0  0  0  0  0  0  0  0
    0.5642   -0.3786   -2.2134 H   0  0  0  0  0  0  0  0  0  0  0  0
  1  2  1  0
  2  3  2  0
  3  4  1  0
  4  5  2  0
  5  6  1  0
  6  7  1  0
  7  8  2  0
  8  9  1  0
  9 10  1  0
  9 11  2  0
 11 12  1  0
 12 13  2  0
  6 14  2  0
 14  2  1  0
 13  7  1  0
  1 15  1  0
  1 16  1  0
  1 17  1  0
  3 18  1  0
  4 19  1  0
  8 20  1  0
 10 21  1  0
 10 22  1  0
 10 23  1  0
 11 24  1  0
 12 25  1  0
 14 26  1  0
M  END
$$$$

     RDKit          3D

 26 27  0  0  0  0  0  0  0  0999 V2000
   -3.7338   -2.1170    0.9121 C   0  0  0  0  0  0  0  0  0  0  0  0
   -2.8325   -1.1992    0.1566 C   0  0  0  0  0  0  0  0  0  0  0  0
   -3.3057   -0.4546   -0.9257 C   0  0  0  0  0  0  0  0  0  0  0  0
   -2.4380    0.4023   -1.5882 C   0  0  0  0  0  0  0  0  0  0  0  0
   -1.1579    0.5723   -1.2596 N   0  0  0  0  0  0  0  0  0  0  0  0
   -0.6990   -0.1414   -0.2171 C   0  0  0  0  0  0  0  0  0  0  0  0
    0.7301    0.0611    0.1550 C   0  0  0  0  0  0  0  0  0  0  0  0
    1.4979    1.0046   -0.5113 C   0  0  0  0  0  0  0  0  0  0  0  0
    2.8294    1.2079   -0.1460 C   0  0  0  0  0  0  0  0  0  0  0  0
    3.6854    2.2297   -0.8144 C   0  0  0  0  0  0  0  0  0  0  0  0
    3.3267    0.4157    0.8890 C   0  0  0  0  0  0  0  0  0  0  0  0
    2.4892   -0.5150    1.4875 C   0  0  0  0  0  0  0  0  0  0  0  0
    1.2135   -0.6989    1.1501 N   0  0  0  0  0  0  0  0  0  0  0  0
   -1.4908   -1.0260    0.5004 C   0  0  0  0  0  0  0  0  0  0  0  0
   -4.3413   -2.7182    0.2316 H   0  0  0  0  0  0  0  0  0  0  0  0
   -4.4234   -1.5520    1.5384 H   0  0  0  0  0  0  0  0  0  0  0  0
   -3.1766   -2.7974    1.5602 H   0  0  0  0  0  0  0  0  0  0  0  0
   -4.3401   -0.5457   -1.2433 H   0  0  0  0  0  0  0  0  0  0  0  0
   -2.7824    0.9919   -2.4354 H   0  0  0  0  0  0  0  0  0  0  0  0
    1.0616    1.5822   -1.3174 H   0  0  0  0  0  0  0  0  0  0  0  0
    3.2172    2.6151   -1.7220 H   0  0  0  0  0  0  0  0  0  0  0  0
    3.8710    3.0723   -0.1527 H   0  0  0  0  0  0  0  0  0  0  0  0
    4.6568    1.8154   -1.0860 H   0  0  0  0  0  0  0  0  0  0  0  0
    4.3550    0.5285    1.2205 H   0  0  0  0  0  0  0  0  0  0  0  0
    2.8546   -1.1534    2.2875 H   0  0  0  0  0  0  0  0  0  0  0  0
   -1.0669   -1.5804    1.3303 H   0  0  0  0  0  0  0  0  0  0  0  0
  1  2  1  0
  2  3  2  0
  3  4  1  0
  4  5  2  0
  5  6  1  0
  6  7  1  0
  7  8  2  0
  8  9  1  0
  9 10  1  0
  9 11  2  0
 11 12  1  0
 12 13  2  0
  6 14  2  0
 14  2  1  0
 13  7  1  0
  1 15  1  0
  1 16  1  0
  1 17  1  0
  3 18  1  0
  4 19  1  0
  8 20  1  0
 10 21  1  0
 10 22  1  0
 10 23  1  0
 11 24  1  0
 12 25  1  0
 14 26  1  0
M  END
$$$$

     RDKit          3D

 26 27  0  0  0  0  0  0  0  0999 V2000
    4.2789    0.9724    0.1869 C   0  0  0  0  0  0  0  0  0  0  0  0
    2.9380    0.8092   -0.4479 C   0  0  0  0  0  0  0  0  0  0  0  0
    2.7501    1.0944   -1.8012 C   0  0  0  0  0  0  0  0  0  0  0  0
    1.4896    0.9338   -2.3574 C   0  0  0  0  0  0  0  0  0  0  0  0
    0.4212    0.5164   -1.6783 N   0  0  0  0  0  0  0  0  0  0  0  0
    0.5940    0.2450   -0.3772 C   0  0  0  0  0  0  0  0  0  0  0  0
   -0.6061   -0.2114    0.3793 C   0  0  0  0  0  0  0  0  0  0  0  0
   -1.8150   -0.4077   -0.2737 C   0  0  0  0  0  0  0  0  0  0  0  0
   -2.9341   -0.8334    0.4436 C   0  0  0  0  0  0  0  0  0  0  0  0
   -4.2582   -1.0697   -0.2035 C   0  0  0  0  0  0  0  0  0  0  0  0
   -2.7616   -1.0343    1.8140 C   0  0  0  0  0  0  0  0  0  0  0  0
   -1.5155   -0.8105    2.3806 C   0  0  0  0  0  0  0  0  0  0  0  0
   -0.4437   -0.4120    1.6953 N   0  0  0  0  0  0  0  0  0  0  0  0
    1.8184    0.3743    0.2644 C   0  0  0  0  0  0  0  0  0  0  0  0
    4.2749    0.6618    1.2332 H   0  0  0  0  0  0  0  0  0  0  0  0
    4.6036    2.0148    0.1452 H   0  0  0  0  0  0  0  0  0  0  0  0
    5.0325    0.3841   -0.3380 H   0  0  0  0  0  0  0  0  0  0  0  0
    3.5832    1.4396   -2.4069 H   0  0  0  0  0  0  0  0  0  0  0  0
    1.3144    1.1534   -3.4055 H   0  0  0  0  0  0  0  0  0  0  0  0
   -1.8838   -0.2328   -1.3407 H   0  0  0  0  0  0  0  0  0  0  0  0
   -5.0110   -0.3840    0.1878 H   0  0  0  0  0  0  0  0  0  0  0  0
   -4.6118   -2.0812   -0.0017 H   0  0  0  0  0  0  0  0  0  0  0  0
   -4.2078   -0.9360   -1.2871 H   0  0  0  0  0  0  0  0  0  0  0  0
   -3.5962   -1.3627    2.4263 H   0  0  0  0  0  0  0  0  0  0  0  0
   -1.3556   -0.9603    3.4438 H   0  0  0  0  0  0  0  0  0  0  0  0
    1.9015    0.1366    1.3186 H   0  0  0  0  0  0  0  0  0  0  0  0
  1  2  1  0
  2  3  2  0
  3  4  1  0
  4  5  2  0
  5  6  1  0
  6  7  1  0
  7  8  2  0
  8  9  1  0
  9 10  1  0
  9 11  2  0
 11 12  1  0
 12 13  2  0
  6 14  2  0
 14  2  1  0
 13  7  1  0
  1 15  1  0
  1 16  1  0
  1 17  1  0
  3 18  1  0
  4 19  1  0
  8 20  1  0
 10 21  1  0
 10 22  1  0
 10 23  1  0
 11 24  1  0
 12 25  1  0
 14 26  1  0
M  END
$$$$

     RDKit          3D

 26 27  0  0  0  0  0  0  0  0999 V2000
    3.6155   -2.4865    0.0035 C   0  0  0  0  0  0  0  0  0  0  0  0
    2.5837   -1.5745    0.5747 C   0  0  0  0  0  0  0  0  0  0  0  0
    2.6534   -1.1596    1.9061 C   0  0  0  0  0  0  0  0  0  0  0  0
    1.6705   -0.3167    2.4045 C   0  0  0  0  0  0  0  0  0  0  0  0
    0.6432    0.1358    1.6873 N   0  0  0  0  0  0  0  0  0  0  0  0
    0.5757   -0.2523    0.4033 C   0  0  0  0  0  0  0  0  0  0  0  0
   -0.5694    0.2637   -0.3991 C   0  0  0  0  0  0  0  0  0  0  0  0
   -1.5218    1.0859    0.1852 C   0  0  0  0  0  0  0  0  0  0  0  0
   -2.5884    1.5711   -0.5738 C   0  0  0  0  0  0  0  0  0  0  0  0
   -3.6488    2.4462    0.0045 C   0  0  0  0  0  0  0  0  0  0  0  0
   -2.6262    1.1920   -1.9170 C   0  0  0  0  0  0  0  0  0  0  0  0
   -1.6318    0.3630   -2.4144 C   0  0  0  0  0  0  0  0  0  0  0  0
   -0.6165   -0.1058   -1.6903 N   0  0  0  0  0  0  0  0  0  0  0  0
    1.5123   -1.0925   -0.1795 C   0  0  0  0  0  0  0  0  0  0  0  0
    3.3601   -2.8037   -1.0087 H   0  0  0  0  0  0  0  0  0  0  0  0
    4.5904   -2.0034   -0.0301 H   0  0  0  0  0  0  0  0  0  0  0  0
    3.7268   -3.3821    0.6187 H   0  0  0  0  0  0  0  0  0  0  0  0
    3.4696   -1.4933    2.5396 H   0  0  0  0  0  0  0  0  0  0  0  0
    1.6994    0.0150    3.4390 H   0  0  0  0  0  0  0  0  0  0  0  0
   -1.4304    1.3522    1.2324 H   0  0  0  0  0  0  0  0  0  0  0  0
   -3.8332    3.3100   -0.6352 H   0  0  0  0  0  0  0  0  0  0  0  0
   -3.3789    2.8092    0.9984 H   0  0  0  0  0  0  0  0  0  0  0  0
   -4.5935    1.9077    0.0909 H   0  0  0  0  0  0  0  0  0  0  0  0
   -3.4275    1.5404   -2.5608 H   0  0  0  0  0  0  0  0  0  0  0  0
   -1.6438    0.0489   -3.4556 H   0  0  0  0  0  0  0  0  0  0  0  0
    1.4097   -1.3706   -1.2237 H   0  0  0  0  0  0  0  0  0  0  0  0
  1  2  1  0
  2  3  2  0
  3  4  1  0
  4  5  2  0
  5  6  1  0
  6  7  1  0
  7  8  2  0
  8  9  1  0
  9 10  1  0
  9 11  2  0
 11 12  1  0
 12 13  2  0
  6 14  2  0
 14  2  1  0
 13  7  1  0
  1 15  1  0
  1 16  1  0
  1 17  1  0
  3 18  1  0
  4 19  1  0
  8 20  1  0
 10 21  1  0
 10 22  1  0
 10 23  1  0
 11 24  1  0
 12 25  1  0
 14 26  1  0
M  END
$$$$

     RDKit          3D

 26 27  0  0  0  0  0  0  0  0999 V2000
   -0.6665    1.3071    4.1397 C   0  0  0  0  0  0  0  0  0  0  0  0
   -0.0269    0.5371    3.0331 C   0  0  0  0  0  0  0  0  0  0  0  0
    0.9768   -0.3977    3.2967 C   0  0  0  0  0  0  0  0  0  0  0  0
    1.5371   -1.1052    2.2429 C   0  0  0  0  0  0  0  0  0  0  0  0
    1.1792   -0.9553    0.9690 N   0  0  0  0  0  0  0  0  0  0  0  0
    0.2152   -0.0562    0.7102 C   0  0  0  0  0  0  0  0  0  0  0  0
   -0.1792    0.1091   -0.7174 C   0  0  0  0  0  0  0  0  0  0  0  0
    0.3822   -0.7019   -1.6922 C   0  0  0  0  0  0  0  0  0  0  0  0
    0.0095   -0.5527   -3.0288 C   0  0  0  0  0  0  0  0  0  0  0  0
    0.5791   -1.4031   -4.1143 C   0  0  0  0  0  0  0  0  0  0  0  0
   -0.9290    0.4411   -3.3111 C   0  0  0  0  0  0  0  0  0  0  0  0
   -1.4326    1.2106   -2.2719 C   0  0  0  0  0  0  0  0  0  0  0  0
   -1.0845    1.0611   -0.9938 N   0  0  0  0  0  0  0  0  0  0  0  0
   -0.3998    0.6979    1.6976 C   0  0  0  0  0  0  0  0  0  0  0  0
   -1.3102    0.6639    4.7389 H   0  0  0  0  0  0  0  0  0  0  0  0
   -1.2768    2.1303    3.7596 H   0  0  0  0  0  0  0  0  0  0  0  0
    0.0851    1.7257    4.8120 H   0  0  0  0  0  0  0  0  0  0  0  0
    1.3101   -0.5686    4.3154 H   0  0  0  0  0  0  0  0  0  0  0  0
    2.3200   -1.8381    2.4211 H   0  0  0  0  0  0  0  0  0  0  0  0
    1.1147   -1.4486   -1.4138 H   0  0  0  0  0  0  0  0  0  0  0  0
    1.1176   -0.7959   -4.8433 H   0  0  0  0  0  0  0  0  0  0  0  0
   -0.2098   -1.9269   -4.6543 H   0  0  0  0  0  0  0  0  0  0  0  0
    1.2735   -2.1506   -3.7215 H   0  0  0  0  0  0  0  0  0  0  0  0
   -1.2574    0.6093   -4.3317 H   0  0  0  0  0  0  0  0  0  0  0  0
   -2.1585    1.9967   -2.4682 H   0  0  0  0  0  0  0  0  0  0  0  0
   -1.1689    1.4110    1.4260 H   0  0  0  0  0  0  0  0  0  0  0  0
  1  2  1  0
  2  3  2  0
  3  4  1  0
  4  5  2  0
  5  6  1  0
  6  7  1  0
  7  8  2  0
  8  9  1  0
  9 10  1  0
  9 11  2  0
 11 12  1  0
 12 13  2  0
  6 14  2  0
 14  2  1  0
 13  7  1  0
  1 15  1  0
  1 16  1  0
  1 17  1  0
  3 18  1  0
  4 19  1  0
  8 20  1  0
 10 21  1  0
 10 22  1  0
 10 23  1  0
 11 24  1  0
 12 25  1  0
 14 26  1  0
M  END
$$$$

     RDKit          3D

 26 27  0  0  0  0  0  0  0  0999 V2000
    1.9421   -3.8937   -0.5715 C   0  0  0  0  0  0  0  0  0  0  0  0
    1.1166   -2.8678    0.1287 C   0  0  0  0  0  0  0  0  0  0  0  0
    0.5192   -3.1414    1.3606 C   0  0  0  0  0  0  0  0  0  0  0  0
   -0.2339   -2.1535    1.9792 C   0  0  0  0  0  0  0  0  0  0  0  0
   -0.4355   -0.9391    1.4695 N   0  0  0  0  0  0  0  0  0  0  0  0
    0.1375   -0.6715    0.2845 C   0  0  0  0  0  0  0  0  0  0  0  0
   -0.0918    0.6897   -0.2794 C   0  0  0  0  0  0  0  0  0  0  0  0
   -0.9310    1.5789    0.3748 C   0  0  0  0  0  0  0  0  0  0  0  0
   -1.1445    2.8558   -0.1466 C   0  0  0  0  0  0  0  0  0  0  0  0
   -2.0273    3.8492    0.5322 C   0  0  0  0  0  0  0  0  0  0  0  0
   -0.4798    3.1674   -1.3333 C   0  0  0  0  0  0  0  0  0  0  0  0
    0.3412    2.2136   -1.9191 C   0  0  0  0  0  0  0  0  0  0  0  0
    0.5437    0.9916   -1.4215 N   0  0  0  0  0  0  0  0  0  0  0  0
    0.9097   -1.5942   -0.4033 C   0  0  0  0  0  0  0  0  0  0  0  0
    2.3015   -3.5319   -1.5382 H   0  0  0  0  0  0  0  0  0  0  0  0
    2.8084   -4.1700    0.0280 H   0  0  0  0  0  0  0  0  0  0  0  0
    1.3668   -4.8050   -0.7470 H   0  0  0  0  0  0  0  0  0  0  0  0
    0.6430   -4.1138    1.8264 H   0  0  0  0  0  0  0  0  0  0  0  0
   -0.7060   -2.3376    2.9407 H   0  0  0  0  0  0  0  0  0  0  0  0
   -1.4200    1.2761    1.2931 H   0  0  0  0  0  0  0  0  0  0  0  0
   -2.6825    4.3498   -0.1828 H   0  0  0  0  0  0  0  0  0  0  0  0
   -2.6566    3.3756    1.2900 H   0  0  0  0  0  0  0  0  0  0  0  0
   -1.4382    4.6215    1.0241 H   0  0  0  0  0  0  0  0  0  0  0  0
   -0.6083    4.1420   -1.7938 H   0  0  0  0  0  0  0  0  0  0  0  0
    0.8683    2.4307   -2.8440 H   0  0  0  0  0  0  0  0  0  0  0  0
    1.3573   -1.3223   -1.3514 H   0  0  0  0  0  0  0  0  0  0  0  0
  1  2  1  0
  2  3  2  0
  3  4  1  0
  4  5  2  0
  5  6  1  0
  6  7  1  0
  7  8  2  0
  8  9  1  0
  9 10  1  0
  9 11  2  0
 11 12  1  0
 12 13  2  0
  6 14  2  0
 14  2  1  0
 13  7  1  0
  1 15  1  0
  1 16  1  0
  1 17  1  0
  3 18  1  0
  4 19  1  0
  8 20  1  0
 10 21  1  0
 10 22  1  0
 10 23  1  0
 11 24  1  0
 12 25  1  0
 14 26  1  0
M  END
$$$$

     RDKit          3D

 26 27  0  0  0  0  0  0  0  0999 V2000
    2.6509    3.3242    1.0974 C   0  0  0  0  0  0  0  0  0  0  0  0
    1.6030    2.6132    0.3092 C   0  0  0  0  0  0  0  0  0  0  0  0
    0.9561    3.2413   -0.7575 C   0  0  0  0  0  0  0  0  0  0  0  0
   -0.0131    2.5447   -1.4641 C   0  0  0  0  0  0  0  0  0  0  0  0
   -0.3825    1.2943   -1.1925 N   0  0  0  0  0  0  0  0  0  0  0  0
    0.2342    0.6866   -0.1654 C   0  0  0  0  0  0  0  0  0  0  0  0
   -0.1935   -0.7077    0.1421 C   0  0  0  0  0  0  0  0  0  0  0  0
   -1.2132   -1.3021   -0.5879 C   0  0  0  0  0  0  0  0  0  0  0  0
   -1.6137   -2.6071   -0.2984 C   0  0  0  0  0  0  0  0  0  0  0  0
   -2.7025   -3.2902   -1.0568 C   0  0  0  0  0  0  0  0  0  0  0  0
   -0.9401   -3.2533    0.7405 C   0  0  0  0  0  0  0  0  0  0  0  0
    0.0692   -2.5810    1.4158 C   0  0  0  0  0  0  0  0  0  0  0  0
    0.4496   -1.3326    1.1394 N   0  0  0  0  0  0  0  0  0  0  0  0
    1.2212    1.3014    0.5921 C   0  0  0  0  0  0  0  0  0  0  0  0
    2.2672    4.2636    1.4964 H   0  0  0  0  0  0  0  0  0  0  0  0
    3.0006    2.7192    1.9379 H   0  0  0  0  0  0  0  0  0  0  0  0
    3.5076    3.5684    0.4768 H   0  0  0  0  0  0  0  0  0  0  0  0
    1.2093    4.2617   -1.0261 H   0  0  0  0  0  0  0  0  0  0  0  0
   -0.5372    3.0112   -2.2954 H   0  0  0  0  0  0  0  0  0  0  0  0
   -1.6987   -0.7492   -1.3830 H   0  0  0  0  0  0  0  0  0  0  0  0
   -3.1244   -2.6453   -1.8331 H   0  0  0  0  0  0  0  0  0  0  0  0
   -3.5166   -3.5845   -0.3921 H   0  0  0  0  0  0  0  0  0  0  0  0
   -2.3358   -4.1980   -1.5354 H   0  0  0  0  0  0  0  0  0  0  0  0
   -1.2006   -4.2714    1.0120 H   0  0  0  0  0  0  0  0  0  0  0  0
    0.6105   -3.0631    2.2253 H   0  0  0  0  0  0  0  0  0  0  0  0
    1.6926    0.7557    1.4027 H   0  0  0  0  0  0  0  0  0  0  0  0
  1  2  1  0
  2  3  2  0
  3  4  1  0
  4  5  2  0
  5  6  1  0
  6  7  1  0
  7  8  2  0
  8  9  1  0
  9 10  1  0
  9 11  2  0
 11 12  1  0
 12 13  2  0
  6 14  2  0
 14  2  1  0
 13  7  1  0
  1 15  1  0
  1 16  1  0
  1 17  1  0
  3 18  1  0
  4 19  1  0
  8 20  1  0
 10 21  1  0
 10 22  1  0
 10 23  1  0
 11 24  1  0
 12 25  1  0
 14 26  1  0
M  END
$$$$
