
     RDKit          3D

 25 27  0  0  0  0  0  0  0  0999 V2000
    1.6091   -1.3906   -2.2055 C   0  0  0  0  0  0  0  0  0  0  0  0
    0.9259   -0.5869   -1.1362 C   0  0  0  0  0  0  0  0  0  0  0  0
    1.3796    0.6322   -0.7811 C   0  0  0  0  0  0  0  0  0  0  0  0
    0.7632    1.4215    0.2233 C   0  0  0  0  0  0  0  0  0  0  0  0
    1.2536    2.6911    0.5954 C   0  0  0  0  0  0  0  0  0  0  0  0
    0.6049    3.4074    1.5717 C   0  0  0  0  0  0  0  0  0  0  0  0
   -0.5393    2.8496    2.1707 C   0  0  0  0  0  0  0  0  0  0  0  0
   -1.0303    1.6422    1.8466 N   0  0  0  0  0  0  0  0  0  0  0  0
   -0.3994    0.9394    0.8991 C   0  0  0  0  0  0  0  0  0  0  0  0
   -0.9137   -0.3678    0.5333 C   0  0  0  0  0  0  0  0  0  0  0  0
   -1.9936   -0.8119    1.1722 N   0  0  0  0  0  0  0  0  0  0  0  0
   -2.4636   -2.0220    0.8508 C   0  0  0  0  0  0  0  0  0  0  0  0
   -1.8818   -2.8406   -0.1300 C   0  0  0  0  0  0  0  0  0  0  0  0
   -0.7681   -2.3890   -0.7934 C   0  0  0  0  0  0  0  0  0  0  0  0
   -0.2391   -1.1262   -0.4795 C   0  0  0  0  0  0  0  0  0  0  0  0
    0.9302   -1.5876   -3.0424 H   0  0  0  0  0  0  0  0  0  0  0  0
    1.9457   -2.3530   -1.8142 H   0  0  0  0  0  0  0  0  0  0  0  0
    2.4841   -0.8503   -2.5956 H   0  0  0  0  0  0  0  0  0  0  0  0
    2.2513    1.0484   -1.2810 H   0  0  0  0  0  0  0  0  0  0  0  0
    2.1291    3.0721    0.1012 H   0  0  0  0  0  0  0  0  0  0  0  0
    0.9512    4.3820    1.8746 H   0  0  0  0  0  0  0  0  0  0  0  0
   -1.0642    3.3956    2.9354 H   0  0  0  0  0  0  0  0  0  0  0  0
   -3.3343   -2.3618    1.3880 H   0  0  0  0  0  0  0  0  0  0  0  0
   -2.3058   -3.8090   -0.3509 H   0  0  0  0  0  0  0  0  0  0  0  0
   -0.2943   -2.9846   -1.5526 H   0  0  0  0  0  0  0  0  0  0  0  0
  1  2  1  0
  2  3  2  0
  3  4  1  0
  4  5  1  0
  5  6  2  0
  6  7  1  0
  7  8  2  0
  8  9  1  0
  9 10  1  0
 10 11  2  0
 11 12  1  0
 12 13  2  0
 13 14  1  0
 14 15  2  0
 15  2  1  0
  9  4  2  0
 15 10  1  0
  1 16  1  0
  1 17  1  0
  1 18  1  0
  3 19  1  0
  5 20  1  0
  6 21  1  0
  7 22  1  0
 12 23  1  0
 13 24  1  0
 14 25  1  0
M  END
$$$$

     RDKit          3D

 25 27  0  0  0  0  0  0  0  0999 V2000
    2.3636   -0.0886   -1.9463 C   0  0  0  0  0  0  0  0  0  0  0  0
    1.3164   -0.0475   -0.8705 C   0  0  0  0  0  0  0  0  0  0  0  0
    1.6538    0.0684    0.4310 C   0  0  0  0  0  0  0  0  0  0  0  0
    0.6904    0.1295    1.4718 C   0  0  0  0  0  0  0  0  0  0  0  0
    1.0484    0.2573    2.8311 C   0  0  0  0  0  0  0  0  0  0  0  0
    0.0662    0.3029    3.7913 C   0  0  0  0  0  0  0  0  0  0  0  0
   -1.2768    0.2279    3.3824 C   0  0  0  0  0  0  0  0  0  0  0  0
   -1.6562    0.1163    2.0985 N   0  0  0  0  0  0  0  0  0  0  0  0
   -0.7029    0.0637    1.1608 C   0  0  0  0  0  0  0  0  0  0  0  0
   -1.0957   -0.0552   -0.2330 C   0  0  0  0  0  0  0  0  0  0  0  0
   -2.3939   -0.1052   -0.5139 N   0  0  0  0  0  0  0  0  0  0  0  0
   -2.7593   -0.2143   -1.7959 C   0  0  0  0  0  0  0  0  0  0  0  0
   -1.8429   -0.2725   -2.8547 C   0  0  0  0  0  0  0  0  0  0  0  0
   -0.5013   -0.2214   -2.5708 C   0  0  0  0  0  0  0  0  0  0  0  0
   -0.0772   -0.1116   -1.2401 C   0  0  0  0  0  0  0  0  0  0  0  0
    2.2739   -0.9932   -2.5497 H   0  0  0  0  0  0  0  0  0  0  0  0
    3.3712   -0.0643   -1.5072 H   0  0  0  0  0  0  0  0  0  0  0  0
    2.2630    0.7706   -2.6155 H   0  0  0  0  0  0  0  0  0  0  0  0
    2.7033    0.1245    0.7129 H   0  0  0  0  0  0  0  0  0  0  0  0
    2.0897    0.3232    3.0899 H   0  0  0  0  0  0  0  0  0  0  0  0
    0.3065    0.3943    4.8380 H   0  0  0  0  0  0  0  0  0  0  0  0
   -2.0635    0.2640    4.1179 H   0  0  0  0  0  0  0  0  0  0  0  0
   -3.8188   -0.2502   -1.9960 H   0  0  0  0  0  0  0  0  0  0  0  0
   -2.1905   -0.3592   -3.8744 H   0  0  0  0  0  0  0  0  0  0  0  0
    0.2327   -0.2596   -3.3578 H   0  0  0  0  0  0  0  0  0  0  0  0
  1  2  1  0
  2  3  2  0
  3  4  1  0
  4  5  1  0
  5  6  2  0
  6  7  1  0
  7  8  2  0
  8  9  1  0
  9 10  1  0
 10 11  2  0
 11 12  1  0
 12 13  2  0
 13 14  1  0
 14 15  2  0
 15  2  1  0
  9  4  2  0
 15 10  1  0
  1 16  1  0
  1 17  1  0
  1 18  1  0
  3 19  1  0
  5 20  1  0
  6 21  1  0
  7 22  1  0
 12 23  1  0
 13 24  1  0
 14 25  1  0
M  END
$$$$

     RDKit          3D

 25 27  0  0  0  0  0  0  0  0999 V2000
    2.7553    0.9906   -0.9093 C   0  0  0  0  0  0  0  0  0  0  0  0
    1.4008    0.4181   -0.6084 C   0  0  0  0  0  0  0  0  0  0  0  0
    0.7894   -0.4309   -1.4601 C   0  0  0  0  0  0  0  0  0  0  0  0
   -0.4896   -0.9891   -1.1991 C   0  0  0  0  0  0  0  0  0  0  0  0
   -1.1210   -1.8891   -2.0830 C   0  0  0  0  0  0  0  0  0  0  0  0
   -2.3700   -2.3804   -1.7782 C   0  0  0  0  0  0  0  0  0  0  0  0
   -2.9812   -1.9726   -0.5785 C   0  0  0  0  0  0  0  0  0  0  0  0
   -2.4090   -1.1246    0.2896 N   0  0  0  0  0  0  0  0  0  0  0  0
   -1.1937   -0.6446   -0.0057 C   0  0  0  0  0  0  0  0  0  0  0  0
   -0.5580    0.2604    0.9322 C   0  0  0  0  0  0  0  0  0  0  0  0
   -1.2190    0.5697    2.0430 N   0  0  0  0  0  0  0  0  0  0  0  0
   -0.6378    1.4039    2.9126 C   0  0  0  0  0  0  0  0  0  0  0  0
    0.6392    1.9516    2.7150 C   0  0  0  0  0  0  0  0  0  0  0  0
    1.3256    1.6394    1.5670 C   0  0  0  0  0  0  0  0  0  0  0  0
    0.7422    0.7800    0.6231 C   0  0  0  0  0  0  0  0  0  0  0  0
    2.7159    2.0814   -0.9450 H   0  0  0  0  0  0  0  0  0  0  0  0
    3.4800    0.7049   -0.1406 H   0  0  0  0  0  0  0  0  0  0  0  0
    3.1219    0.6274   -1.8815 H   0  0  0  0  0  0  0  0  0  0  0  0
    1.2789   -0.7074   -2.3913 H   0  0  0  0  0  0  0  0  0  0  0  0
   -0.6076   -2.1770   -2.9820 H   0  0  0  0  0  0  0  0  0  0  0  0
   -2.8804   -3.0652   -2.4362 H   0  0  0  0  0  0  0  0  0  0  0  0
   -3.9602   -2.3432   -0.3202 H   0  0  0  0  0  0  0  0  0  0  0  0
   -1.2013    1.6469    3.7985 H   0  0  0  0  0  0  0  0  0  0  0  0
    1.0701    2.6102    3.4540 H   0  0  0  0  0  0  0  0  0  0  0  0
    2.3096    2.0396    1.3841 H   0  0  0  0  0  0  0  0  0  0  0  0
  1  2  1  0
  2  3  2  0
  3  4  1  0
  4  5  1  0
  5  6  2  0
  6  7  1  0
  7  8  2  0
  8  9  1  0
  9 10  1  0
 10 11  2  0
 11 12  1  0
 12 13  2  0
 13 14  1  0
 14 15  2  0
 15  2  1  0
  9  4  2  0
 15 10  1  0
  1 16  1  0
  1 17  1  0
  1 18  1  0
  3 19  1  0
  5 20  1  0
  6 21  1  0
  7 22  1  0
 12 23  1  0
 13 24  1  0
 14 25  1  0
M  END
$$$$

     RDKit          3D

 25 27  0  0  0  0  0  0  0  0999 V2000
    1.8569    1.2020    2.1220 C   0  0  0  0  0  0  0  0  0  0  0  0
    1.0813    0.5367    1.0208 C   0  0  0  0  0  0  0  0  0  0  0  0
    1.6729   -0.3260    0.1677 C   0  0  0  0  0  0  0  0  0  0  0  0
    0.9640   -0.9844   -0.8713 C   0  0  0  0  0  0  0  0  0  0  0  0
    1.5827   -1.9011   -1.7489 C   0  0  0  0  0  0  0  0  0  0  0  0
    0.8365   -2.5095   -2.7296 C   0  0  0  0  0  0  0  0  0  0  0  0
   -0.5268   -2.1871   -2.8371 C   0  0  0  0  0  0  0  0  0  0  0  0
   -1.1516   -1.3230   -2.0200 N   0  0  0  0  0  0  0  0  0  0  0  0
   -0.4289   -0.7333   -1.0612 C   0  0  0  0  0  0  0  0  0  0  0  0
   -1.0892    0.1936   -0.1627 C   0  0  0  0  0  0  0  0  0  0  0  0
   -2.3875    0.4227   -0.3436 N   0  0  0  0  0  0  0  0  0  0  0  0
   -3.0040    1.2688    0.4892 C   0  0  0  0  0  0  0  0  0  0  0  0
   -2.3474    1.9375    1.5337 C   0  0  0  0  0  0  0  0  0  0  0  0
   -1.0051    1.7143    1.7203 C   0  0  0  0  0  0  0  0  0  0  0  0
   -0.3243    0.8256    0.8726 C   0  0  0  0  0  0  0  0  0  0  0  0
    1.4627    0.9206    3.1036 H   0  0  0  0  0  0  0  0  0  0  0  0
    2.9151    0.9095    2.0832 H   0  0  0  0  0  0  0  0  0  0  0  0
    1.8006    2.2900    2.0370 H   0  0  0  0  0  0  0  0  0  0  0  0
    2.7342   -0.5394    0.2611 H   0  0  0  0  0  0  0  0  0  0  0  0
    2.6291   -2.1078   -1.6279 H   0  0  0  0  0  0  0  0  0  0  0  0
    1.2742   -3.2224   -3.4098 H   0  0  0  0  0  0  0  0  0  0  0  0
   -1.1280   -2.6400   -3.6067 H   0  0  0  0  0  0  0  0  0  0  0  0
   -4.0570    1.4297    0.3241 H   0  0  0  0  0  0  0  0  0  0  0  0
   -2.8917    2.6164    2.1737 H   0  0  0  0  0  0  0  0  0  0  0  0
   -0.4685    2.2067    2.5099 H   0  0  0  0  0  0  0  0  0  0  0  0
  1  2  1  0
  2  3  2  0
  3  4  1  0
  4  5  1  0
  5  6  2  0
  6  7  1  0
  7  8  2  0
  8  9  1  0
  9 10  1  0
 10 11  2  0
 11 12  1  0
 12 13  2  0
 13 14  1  0
 14 15  2  0
 15  2  1  0
  9  4  2  0
 15 10  1  0
  1 16  1  0
  1 17  1  0
  1 18  1  0
  3 19  1  0
  5 20  1  0
  6 21  1  0
  7 22  1  0
 12 23  1  0
 13 24  1  0
 14 25  1  0
M  END
$$$$

     RDKit          3D

 25 27  0  0  0  0  0  0  0  0999 V2000
   -2.2367    1.7242   -1.2054 C   0  0  0  0  0  0  0  0  0  0  0  0
   -1.0606    1.0205   -0.5890 C   0  0  0  0  0  0  0  0  0  0  0  0
    0.0267    1.7013   -0.1726 C   0  0  0  0  0  0  0  0  0  0  0  0
    1.1598    1.0667    0.4010 C   0  0  0  0  0  0  0  0  0  0  0  0
    2.2967    1.7857    0.8289 C   0  0  0  0  0  0  0  0  0  0  0  0
    3.3616    1.1104    1.3793 C   0  0  0  0  0  0  0  0  0  0  0  0
    3.2815   -0.2877    1.5056 C   0  0  0  0  0  0  0  0  0  0  0  0
    2.2190   -1.0050    1.1078 N   0  0  0  0  0  0  0  0  0  0  0  0
    1.1857   -0.3510    0.5633 C   0  0  0  0  0  0  0  0  0  0  0  0
    0.0317   -1.1101    0.1238 C   0  0  0  0  0  0  0  0  0  0  0  0
    0.0723   -2.4315    0.2638 N   0  0  0  0  0  0  0  0  0  0  0  0
   -0.9957   -3.1381   -0.1162 C   0  0  0  0  0  0  0  0  0  0  0  0
   -2.1513   -2.5545   -0.6591 C   0  0  0  0  0  0  0  0  0  0  0  0
   -2.1939   -1.1908   -0.8204 C   0  0  0  0  0  0  0  0  0  0  0  0
   -1.0896   -0.4140   -0.4382 C   0  0  0  0  0  0  0  0  0  0  0  0
   -3.1442    1.5601   -0.6155 H   0  0  0  0  0  0  0  0  0  0  0  0
   -2.4251    1.3620   -2.2179 H   0  0  0  0  0  0  0  0  0  0  0  0
   -2.0568    2.8079   -1.2546 H   0  0  0  0  0  0  0  0  0  0  0  0
    0.0565    2.7848   -0.2790 H   0  0  0  0  0  0  0  0  0  0  0  0
    2.3048    2.8539    0.7136 H   0  0  0  0  0  0  0  0  0  0  0  0
    4.2453    1.6293    1.7128 H   0  0  0  0  0  0  0  0  0  0  0  0
    4.1026   -0.8349    1.9391 H   0  0  0  0  0  0  0  0  0  0  0  0
   -0.9393   -4.2085    0.0123 H   0  0  0  0  0  0  0  0  0  0  0  0
   -2.9897   -3.1730   -0.9459 H   0  0  0  0  0  0  0  0  0  0  0  0
   -3.0613   -0.7078   -1.2378 H   0  0  0  0  0  0  0  0  0  0  0  0
  1  2  1  0
  2  3  2  0
  3  4  1  0
  4  5  1  0
  5  6  2  0
  6  7  1  0
  7  8  2  0
  8  9  1  0
  9 10  1  0
 10 11  2  0
 11 12  1  0
 12 13  2  0
 13 14  1  0
 14 15  2  0
 15  2  1  0
  9  4  2  0
 15 10  1  0
  1 16  1  0
  1 17  1  0
  1 18  1  0
  3 19  1  0
  5 20  1  0
  6 21  1  0
  7 22  1  0
 12 23  1  0
 13 24  1  0
 14 25  1  0
M  END
$$$$

     RDKit          3D

 25 27  0  0  0  0  0  0  0  0999 V2000
    0.2004   -0.5768   -2.9998 C   0  0  0  0  0  0  0  0  0  0  0  0
   -0.0582   -0.3338   -1.5408 C   0  0  0  0  0  0  0  0  0  0  0  0
   -1.2625   -0.5904   -0.9892 C   0  0  0  0  0  0  0  0  0  0  0  0
   -1.5344   -0.3912    0.3888 C   0  0  0  0  0  0  0  0  0  0  0  0
   -2.7958   -0.6658    0.9590 C   0  0  0  0  0  0  0  0  0  0  0  0
   -2.9887   -0.4660    2.3056 C   0  0  0  0  0  0  0  0  0  0  0  0
   -1.9166    0.0217    3.0740 C   0  0  0  0  0  0  0  0  0  0  0  0
   -0.7069    0.2999    2.5646 N   0  0  0  0  0  0  0  0  0  0  0  0
   -0.5125    0.1045    1.2551 C   0  0  0  0  0  0  0  0  0  0  0  0
    0.7912    0.3971    0.6878 C   0  0  0  0  0  0  0  0  0  0  0  0
    1.7376    0.8663    1.4957 N   0  0  0  0  0  0  0  0  0  0  0  0
    2.9410    1.1365    0.9769 C   0  0  0  0  0  0  0  0  0  0  0  0
    3.2511    0.9581   -0.3799 C   0  0  0  0  0  0  0  0  0  0  0  0
    2.2810    0.4702   -1.2206 C   0  0  0  0  0  0  0  0  0  0  0  0
    1.0062    0.1760   -0.7127 C   0  0  0  0  0  0  0  0  0  0  0  0
   -0.7078   -0.9535   -3.4928 H   0  0  0  0  0  0  0  0  0  0  0  0
    0.9937   -1.3197   -3.1348 H   0  0  0  0  0  0  0  0  0  0  0  0
    0.5099    0.3416   -3.5013 H   0  0  0  0  0  0  0  0  0  0  0  0
   -2.0699   -0.9730   -1.6083 H   0  0  0  0  0  0  0  0  0  0  0  0
   -3.5797   -1.0392    0.3263 H   0  0  0  0  0  0  0  0  0  0  0  0
   -3.9362   -0.6749    2.7758 H   0  0  0  0  0  0  0  0  0  0  0  0
   -2.0475    0.1899    4.1303 H   0  0  0  0  0  0  0  0  0  0  0  0
    3.6897    1.5108    1.6566 H   0  0  0  0  0  0  0  0  0  0  0  0
    4.2328    1.2057   -0.7519 H   0  0  0  0  0  0  0  0  0  0  0  0
    2.4822    0.3060   -2.2641 H   0  0  0  0  0  0  0  0  0  0  0  0
  1  2  1  0
  2  3  2  0
  3  4  1  0
  4  5  1  0
  5  6  2  0
  6  7  1  0
  7  8  2  0
  8  9  1  0
  9 10  1  0
 10 11  2  0
 11 12  1  0
 12 13  2  0
 13 14  1  0
 14 15  2  0
 15  2  1  0
  9  4  2  0
 15 10  1  0
  1 16  1  0
  1 17  1  0
  1 18  1  0
  3 19  1  0
  5 20  1  0
  6 21  1  0
  7 22  1  0
 12 23  1  0
 13 24  1  0
 14 25  1  0
M  END
$$$$

     RDKit          3D

 25 27  0  0  0  0  0  0  0  0999 V2000
   -2.9215    0.9331   -0.0635 C   0  0  0  0  0  0  0  0  0  0  0  0
   -1.5383    0.3532   -0.1329 C   0  0  0  0  0  0  0  0  0  0  0  0
   -1.2648   -0.7167   -0.9085 C   0  0  0  0  0  0  0  0  0  0  0  0
    0.0360   -1.2769   -1.0129 C   0  0  0  0  0  0  0  0  0  0  0  0
    0.3238   -2.3810   -1.8432 C   0  0  0  0  0  0  0  0  0  0  0  0
    1.6075   -2.8713   -1.8967 C   0  0  0  0  0  0  0  0  0  0  0  0
    2.5990   -2.2562   -1.1108 C   0  0  0  0  0  0  0  0  0  0  0  0
    2.3657   -1.2075   -0.3090 N   0  0  0  0  0  0  0  0  0  0  0  0
    1.1163   -0.7255   -0.2585 C   0  0  0  0  0  0  0  0  0  0  0  0
    0.8486    0.4171    0.5930 C   0  0  0  0  0  0  0  0  0  0  0  0
    1.8635    0.9147    1.2945 N   0  0  0  0  0  0  0  0  0  0  0  0
    1.6268    1.9760    2.0741 C   0  0  0  0  0  0  0  0  0  0  0  0
    0.3675    2.5838    2.1841 C   0  0  0  0  0  0  0  0  0  0  0  0
   -0.6838    2.0697    1.4669 C   0  0  0  0  0  0  0  0  0  0  0  0
   -0.4802    0.9535    0.6428 C   0  0  0  0  0  0  0  0  0  0  0  0
   -2.9334    1.9649   -0.4238 H   0  0  0  0  0  0  0  0  0  0  0  0
   -3.6218    0.3509   -0.6794 H   0  0  0  0  0  0  0  0  0  0  0  0
   -3.2885    0.9341    0.9649 H   0  0  0  0  0  0  0  0  0  0  0  0
   -2.0618   -1.1838   -1.4833 H   0  0  0  0  0  0  0  0  0  0  0  0
   -0.4708   -2.8158   -2.4207 H   0  0  0  0  0  0  0  0  0  0  0  0
    1.8645   -3.7093   -2.5239 H   0  0  0  0  0  0  0  0  0  0  0  0
    3.6108   -2.6288   -1.1369 H   0  0  0  0  0  0  0  0  0  0  0  0
    2.4647    2.3664    2.6308 H   0  0  0  0  0  0  0  0  0  0  0  0
    0.2323    3.4412    2.8280 H   0  0  0  0  0  0  0  0  0  0  0  0
   -1.6622    2.5142    1.5249 H   0  0  0  0  0  0  0  0  0  0  0  0
  1  2  1  0
  2  3  2  0
  3  4  1  0
  4  5  1  0
  5  6  2  0
  6  7  1  0
  7  8  2  0
  8  9  1  0
  9 10  1  0
 10 11  2  0
 11 12  1  0
 12 13  2  0
 13 14  1  0
 14 15  2  0
 15  2  1  0
  9  4  2  0
 15 10  1  0
  1 16  1  0
  1 17  1  0
  1 18  1  0
  3 19  1  0
  5 20  1  0
  6 21  1  0
  7 22  1  0
 12 23  1  0
 13 24  1  0
 14 25  1  0
M  END
$$$$

     RDKit          3D

 25 27  0  0  0  0  0  0  0  0999 V2000
   -1.2841   -2.2761   -1.6062 C   0  0  0  0  0  0  0  0  0  0  0  0
   -0.5144   -1.1960   -0.8998 C   0  0  0  0  0  0  0  0  0  0  0  0
    0.7856   -0.9630   -1.1775 C   0  0  0  0  0  0  0  0  0  0  0  0
    1.5379    0.0551   -0.5349 C   0  0  0  0  0  0  0  0  0  0  0  0
    2.8948    0.3015   -0.8365 C   0  0  0  0  0  0  0  0  0  0  0  0
    3.5639    1.3098   -0.1839 C   0  0  0  0  0  0  0  0  0  0  0  0
    2.8704    2.0674    0.7770 C   0  0  0  0  0  0  0  0  0  0  0  0
    1.5835    1.8569    1.0933 N   0  0  0  0  0  0  0  0  0  0  0  0
    0.9288    0.8757    0.4602 C   0  0  0  0  0  0  0  0  0  0  0  0
   -0.4634    0.6373    0.7932 C   0  0  0  0  0  0  0  0  0  0  0  0
   -1.0145    1.3866    1.7429 N   0  0  0  0  0  0  0  0  0  0  0  0
   -2.3027    1.1944    2.0339 C   0  0  0  0  0  0  0  0  0  0  0  0
   -3.0996    0.2350    1.3927 C   0  0  0  0  0  0  0  0  0  0  0  0
   -2.5323   -0.5578    0.4252 C   0  0  0  0  0  0  0  0  0  0  0  0
   -1.1807   -0.3894    0.0947 C   0  0  0  0  0  0  0  0  0  0  0  0
   -2.1338   -1.8589   -2.1508 H   0  0  0  0  0  0  0  0  0  0  0  0
   -0.6422   -2.8030   -2.3285 H   0  0  0  0  0  0  0  0  0  0  0  0
   -1.6724   -3.0104   -0.8977 H   0  0  0  0  0  0  0  0  0  0  0  0
    1.2957   -1.5738   -1.9183 H   0  0  0  0  0  0  0  0  0  0  0  0
    3.3775   -0.3048   -1.5795 H   0  0  0  0  0  0  0  0  0  0  0  0
    4.6006    1.5215   -0.3899 H   0  0  0  0  0  0  0  0  0  0  0  0
    3.3761    2.8606    1.3027 H   0  0  0  0  0  0  0  0  0  0  0  0
   -2.7260    1.8194    2.8056 H   0  0  0  0  0  0  0  0  0  0  0  0
   -4.1392    0.1234    1.6631 H   0  0  0  0  0  0  0  0  0  0  0  0
   -3.1093   -1.3115   -0.0810 H   0  0  0  0  0  0  0  0  0  0  0  0
  1  2  1  0
  2  3  2  0
  3  4  1  0
  4  5  1  0
  5  6  2  0
  6  7  1  0
  7  8  2  0
  8  9  1  0
  9 10  1  0
 10 11  2  0
 11 12  1  0
 12 13  2  0
 13 14  1  0
 14 15  2  0
 15  2  1  0
  9  4  2  0
 15 10  1  0
  1 16  1  0
  1 17  1  0
  1 18  1  0
  3 19  1  0
  5 20  1  0
  6 21  1  0
  7 22  1  0
 12 23  1  0
 13 24  1  0
 14 25  1  0
M  END
$$$$

     RDKit          3D

 25 27  0  0  0  0  0  0  0  0999 V2000
   -1.9637    0.6576    2.2621 C   0  0  0  0  0  0  0  0  0  0  0  0
   -0.8843    0.3301    1.2702 C   0  0  0  0  0  0  0  0  0  0  0  0
    0.4052    0.2171    1.6511 C   0  0  0  0  0  0  0  0  0  0  0  0
    1.4533   -0.0698    0.7364 C   0  0  0  0  0  0  0  0  0  0  0  0
    2.8044   -0.1743    1.1333 C   0  0  0  0  0  0  0  0  0  0  0  0
    3.7706   -0.4434    0.1923 C   0  0  0  0  0  0  0  0  0  0  0  0
    3.3784   -0.6071   -1.1484 C   0  0  0  0  0  0  0  0  0  0  0  0
    2.1057   -0.5246   -1.5590 N   0  0  0  0  0  0  0  0  0  0  0  0
    1.1605   -0.2602   -0.6486 C   0  0  0  0  0  0  0  0  0  0  0  0
   -0.2211   -0.1619   -1.0846 C   0  0  0  0  0  0  0  0  0  0  0  0
   -0.4786   -0.3415   -2.3762 N   0  0  0  0  0  0  0  0  0  0  0  0
   -1.7484   -0.2590   -2.7822 C   0  0  0  0  0  0  0  0  0  0  0  0
   -2.8157    0.0165   -1.9152 C   0  0  0  0  0  0  0  0  0  0  0  0
   -2.5561    0.2124   -0.5825 C   0  0  0  0  0  0  0  0  0  0  0  0
   -1.2373    0.1325   -0.1157 C   0  0  0  0  0  0  0  0  0  0  0  0
   -2.7094   -0.1413    2.3062 H   0  0  0  0  0  0  0  0  0  0  0  0
   -1.5372    0.7813    3.2683 H   0  0  0  0  0  0  0  0  0  0  0  0
   -2.4754    1.5807    1.9881 H   0  0  0  0  0  0  0  0  0  0  0  0
    0.6736    0.3619    2.6950 H   0  0  0  0  0  0  0  0  0  0  0  0
    3.0518   -0.0495    2.1702 H   0  0  0  0  0  0  0  0  0  0  0  0
    4.8105   -0.5300    0.4619 H   0  0  0  0  0  0  0  0  0  0  0  0
    4.1197   -0.8071   -1.9037 H   0  0  0  0  0  0  0  0  0  0  0  0
   -1.9303   -0.4140   -3.8346 H   0  0  0  0  0  0  0  0  0  0  0  0
   -3.8242    0.0767   -2.2972 H   0  0  0  0  0  0  0  0  0  0  0  0
   -3.3519    0.4169    0.1127 H   0  0  0  0  0  0  0  0  0  0  0  0
  1  2  1  0
  2  3  2  0
  3  4  1  0
  4  5  1  0
  5  6  2  0
  6  7  1  0
  7  8  2  0
  8  9  1  0
  9 10  1  0
 10 11  2  0
 11 12  1  0
 12 13  2  0
 13 14  1  0
 14 15  2  0
 15  2  1  0
  9  4  2  0
 15 10  1  0
  1 16  1  0
  1 17  1  0
  1 18  1  0
  3 19  1  0
  5 20  1  0
  6 21  1  0
  7 22  1  0
 12 23  1  0
 13 24  1  0
 14 25  1  0
M  END
$$$$

     RDKit          3D

 25 27  0  0  0  0  0  0  0  0999 V2000
   -1.5400    2.6358    0.3089 C   0  0  0  0  0  0  0  0  0  0  0  0
   -0.8914    1.3070    0.0413 C   0  0  0  0  0  0  0  0  0  0  0  0
   -1.3186    0.5155   -0.9646 C   0  0  0  0  0  0  0  0  0  0  0  0
   -0.7191   -0.7373   -1.2617 C   0  0  0  0  0  0  0  0  0  0  0  0
   -1.1537   -1.5570   -2.3252 C   0  0  0  0  0  0  0  0  0  0  0  0
   -0.5267   -2.7587   -2.5585 C   0  0  0  0  0  0  0  0  0  0  0  0
    0.5366   -3.1392   -1.7214 C   0  0  0  0  0  0  0  0  0  0  0  0
    0.9789   -2.3869   -0.7020 N   0  0  0  0  0  0  0  0  0  0  0  0
    0.3717   -1.2148   -0.4753 C   0  0  0  0  0  0  0  0  0  0  0  0
    0.8525   -0.3833    0.6118 C   0  0  0  0  0  0  0  0  0  0  0  0
    1.8758   -0.8318    1.3322 N   0  0  0  0  0  0  0  0  0  0  0  0
    2.3252   -0.0721    2.3359 C   0  0  0  0  0  0  0  0  0  0  0  0
    1.7668    1.1711    2.6677 C   0  0  0  0  0  0  0  0  0  0  0  0
    0.7038    1.6384    1.9350 C   0  0  0  0  0  0  0  0  0  0  0  0
    0.2093    0.8732    0.8672 C   0  0  0  0  0  0  0  0  0  0  0  0
   -0.8153    3.4495    0.2262 H   0  0  0  0  0  0  0  0  0  0  0  0
   -2.3474    2.8223   -0.4140 H   0  0  0  0  0  0  0  0  0  0  0  0
   -1.9688    2.6637    1.3116 H   0  0  0  0  0  0  0  0  0  0  0  0
   -2.1523    0.8361   -1.5847 H   0  0  0  0  0  0  0  0  0  0  0  0
   -1.9661   -1.2179   -2.9399 H   0  0  0  0  0  0  0  0  0  0  0  0
   -0.8295   -3.4033   -3.3668 H   0  0  0  0  0  0  0  0  0  0  0  0
    1.0377   -4.0790   -1.8822 H   0  0  0  0  0  0  0  0  0  0  0  0
    3.1581   -0.4577    2.9007 H   0  0  0  0  0  0  0  0  0  0  0  0
    2.1672    1.7435    3.4915 H   0  0  0  0  0  0  0  0  0  0  0  0
    0.2452    2.5830    2.1662 H   0  0  0  0  0  0  0  0  0  0  0  0
  1  2  1  0
  2  3  2  0
  3  4  1  0
  4  5  1  0
  5  6  2  0
  6  7  1  0
  7  8  2  0
  8  9  1  0
  9 10  1  0
 10 11  2  0
 11 12  1  0
 12 13  2  0
 13 14  1  0
 14 15  2  0
 15  2  1  0
  9  4  2  0
 15 10  1  0
  1 16  1  0
  1 17  1  0
  1 18  1  0
  3 19  1  0
  5 20  1  0
  6 21  1  0
  7 22  1  0
 12 23  1  0
 13 24  1  0
 14 25  1  0
M  END
$$$$

     RDKit          3D

 25 27  0  0  0  0  0  0  0  0999 V2000
    0.9311    1.3817    2.5766 C   0  0  0  0  0  0  0  0  0  0  0  0
    0.6248    0.6508    1.3007 C   0  0  0  0  0  0  0  0  0  0  0  0
    1.5395   -0.1553    0.7243 C   0  0  0  0  0  0  0  0  0  0  0  0
    1.2838   -0.8864   -0.4643 C   0  0  0  0  0  0  0  0  0  0  0  0
    2.2442   -1.7382   -1.0530 C   0  0  0  0  0  0  0  0  0  0  0  0
    1.9290   -2.4209   -2.2046 C   0  0  0  0  0  0  0  0  0  0  0  0
    0.6516   -2.2395   -2.7654 C   0  0  0  0  0  0  0  0  0  0  0  0
   -0.2865   -1.4370   -2.2348 N   0  0  0  0  0  0  0  0  0  0  0  0
    0.0144   -0.7768   -1.1107 C   0  0  0  0  0  0  0  0  0  0  0  0
   -0.9904    0.0845   -0.5142 C   0  0  0  0  0  0  0  0  0  0  0  0
   -2.1701    0.1710   -1.1218 N   0  0  0  0  0  0  0  0  0  0  0  0
   -3.1033    0.9601   -0.5852 C   0  0  0  0  0  0  0  0  0  0  0  0
   -2.8947    1.7039    0.5854 C   0  0  0  0  0  0  0  0  0  0  0  0
   -1.6764    1.6218    1.2160 C   0  0  0  0  0  0  0  0  0  0  0  0
   -0.6730    0.7986    0.6868 C   0  0  0  0  0  0  0  0  0  0  0  0
    0.2516    1.0675    3.3728 H   0  0  0  0  0  0  0  0  0  0  0  0
    0.8238    2.4592    2.4464 H   0  0  0  0  0  0  0  0  0  0  0  0
    1.9597    1.1727    2.9052 H   0  0  0  0  0  0  0  0  0  0  0  0
    2.5253   -0.2609    1.1738 H   0  0  0  0  0  0  0  0  0  0  0  0
    3.2052   -1.8384   -0.5811 H   0  0  0  0  0  0  0  0  0  0  0  0
    2.6361   -3.0835   -2.6771 H   0  0  0  0  0  0  0  0  0  0  0  0
    0.3865   -2.7591   -3.6720 H   0  0  0  0  0  0  0  0  0  0  0  0
   -4.0521    1.0090   -1.0960 H   0  0  0  0  0  0  0  0  0  0  0  0
   -3.6794    2.3343    0.9762 H   0  0  0  0  0  0  0  0  0  0  0  0
   -1.4808    2.1808    2.1161 H   0  0  0  0  0  0  0  0  0  0  0  0
  1  2  1  0
  2  3  2  0
  3  4  1  0
  4  5  1  0
  5  6  2  0
  6  7  1  0
  7  8  2  0
  8  9  1  0
  9 10  1  0
 10 11  2  0
 11 12  1  0
 12 13  2  0
 13 14  1  0
 14 15  2  0
 15  2  1  0
  9  4  2  0
 15 10  1  0
  1 16  1  0
  1 17  1  0
  1 18  1  0
  3 19  1  0
  5 20  1  0
  6 21  1  0
  7 22  1  0
 12 23  1  0
 13 24  1  0
 14 25  1  0
M  END
$$$$

     RDKit          3D

 25 27  0  0  0  0  0  0  0  0999 V2000
   -1.4149   -0.1786    2.7134 C   0  0  0  0  0  0  0  0  0  0  0  0
   -0.5843   -0.0872    1.4657 C   0  0  0  0  0  0  0  0  0  0  0  0
    0.7540    0.0735    1.5310 C   0  0  0  0  0  0  0  0  0  0  0  0
    1.5708    0.2061    0.3782 C   0  0  0  0  0  0  0  0  0  0  0  0
    2.9687    0.3935    0.4537 C   0  0  0  0  0  0  0  0  0  0  0  0
    3.6986    0.5327   -0.7031 C   0  0  0  0  0  0  0  0  0  0  0  0
    3.0248    0.4679   -1.9362 C   0  0  0  0  0  0  0  0  0  0  0  0
    1.6984    0.2846   -2.0460 N   0  0  0  0  0  0  0  0  0  0  0  0
    0.9837    0.1553   -0.9231 C   0  0  0  0  0  0  0  0  0  0  0  0
   -0.4486   -0.0583   -1.0256 C   0  0  0  0  0  0  0  0  0  0  0  0
   -0.9829   -0.1388   -2.2395 N   0  0  0  0  0  0  0  0  0  0  0  0
   -2.3014   -0.3375   -2.3406 C   0  0  0  0  0  0  0  0  0  0  0  0
   -3.1482   -0.4584   -1.2299 C   0  0  0  0  0  0  0  0  0  0  0  0
   -2.6054   -0.3679    0.0275 C   0  0  0  0  0  0  0  0  0  0  0  0
   -1.2237   -0.1701    0.1752 C   0  0  0  0  0  0  0  0  0  0  0  0
   -1.9354   -1.1394    2.7655 H   0  0  0  0  0  0  0  0  0  0  0  0
   -2.1637    0.6133    2.7414 H   0  0  0  0  0  0  0  0  0  0  0  0
   -0.7800   -0.0850    3.6073 H   0  0  0  0  0  0  0  0  0  0  0  0
    1.2438    0.1048    2.5015 H   0  0  0  0  0  0  0  0  0  0  0  0
    3.4365    0.4210    1.4207 H   0  0  0  0  0  0  0  0  0  0  0  0
    4.7664    0.6816   -0.6811 H   0  0  0  0  0  0  0  0  0  0  0  0
    3.5764    0.5711   -2.8558 H   0  0  0  0  0  0  0  0  0  0  0  0
   -2.7057   -0.4037   -3.3377 H   0  0  0  0  0  0  0  0  0  0  0  0
   -4.2069   -0.6222   -1.3674 H   0  0  0  0  0  0  0  0  0  0  0  0
   -3.2209   -0.4581    0.9052 H   0  0  0  0  0  0  0  0  0  0  0  0
  1  2  1  0
  2  3  2  0
  3  4  1  0
  4  5  1  0
  5  6  2  0
  6  7  1  0
  7  8  2  0
  8  9  1  0
  9 10  1  0
 10 11  2  0
 11 12  1  0
 12 13  2  0
 13 14  1  0
 14 15  2  0
 15  2  1  0
  9  4  2  0
 15 10  1  0
  1 16  1  0
  1 17  1  0
  1 18  1  0
  3 19  1  0
  5 20  1  0
  6 21  1  0
  7 22  1  0
 12 23  1  0
 13 24  1  0
 14 25  1  0
M  END
$$$$
