
     RDKit          3D

 20 21  0  0  0  0  0  0  0  0999 V2000
   -1.0055    0.3353    4.4009 Br  0  0  0  0  0  0  0  0  0  0  0  0
   -0.8310    0.9844    2.6234 C   0  0  0  0  0  0  0  0  0  0  0  0
   -1.1593    2.2953    2.3209 C   0  0  0  0  0  0  0  0  0  0  0  0
   -0.9949    2.7003    1.0061 C   0  0  0  0  0  0  0  0  0  0  0  0
   -0.5272    1.8009    0.0671 C   0  0  0  0  0  0  0  0  0  0  0  0
   -0.2409    0.5093    0.4899 C   0  0  0  0  0  0  0  0  0  0  0  0
    0.2547   -0.5058   -0.4835 C   0  0  0  0  0  0  0  0  0  0  0  0
    0.4968   -1.8103   -0.0728 C   0  0  0  0  0  0  0  0  0  0  0  0
    0.9559   -2.7114   -1.0165 C   0  0  0  0  0  0  0  0  0  0  0  0
    1.1546   -2.2939   -2.3222 C   0  0  0  0  0  0  0  0  0  0  0  0
    0.8750   -0.9689   -2.6109 C   0  0  0  0  0  0  0  0  0  0  0  0
    1.1232   -0.3102   -4.3747 Br  0  0  0  0  0  0  0  0  0  0  0  0
    0.4394   -0.0907   -1.7424 N   0  0  0  0  0  0  0  0  0  0  0  0
   -0.3906    0.1054    1.7572 N   0  0  0  0  0  0  0  0  0  0  0  0
   -1.5274    2.9694    3.0863 H   0  0  0  0  0  0  0  0  0  0  0  0
   -1.2370    3.7129    0.7137 H   0  0  0  0  0  0  0  0  0  0  0  0
   -0.3859    2.0852   -0.9638 H   0  0  0  0  0  0  0  0  0  0  0  0
    0.3339   -2.1009    0.9532 H   0  0  0  0  0  0  0  0  0  0  0  0
    1.1544   -3.7383   -0.7382 H   0  0  0  0  0  0  0  0  0  0  0  0
    1.5118   -2.9680   -3.0937 H   0  0  0  0  0  0  0  0  0  0  0  0
  1  2  1  0
  2  3  1  0
  3  4  2  0
  4  5  1  0
  5  6  2  0
  6  7  1  0
  7  8  2  0
  8  9  1  0
  9 10  2  0
 10 11  1  0
 11 12  1  0
 11 13  2  0
  6 14  1  0
 14  2  2  0
 13  7  1  0
  3 15  1  0
  4 16  1  0
  5 17  1  0
  8 18  1  0
  9 19  1  0
 10 20  1  0
M  END
$$$$

     RDKit          3D

 20 21  0  0  0  0  0  0  0  0999 V2000
   -1.7898    1.7617    3.7687 Br  0  0  0  0  0  0  0  0  0  0  0  0
   -0.6660    0.5935    2.7806 C   0  0  0  0  0  0  0  0  0  0  0  0
    0.1418   -0.3130    3.4446 C   0  0  0  0  0  0  0  0  0  0  0  0
    0.9408   -1.1347    2.6671 C   0  0  0  0  0  0  0  0  0  0  0  0
    0.9051   -1.0188    1.2911 C   0  0  0  0  0  0  0  0  0  0  0  0
    0.0480   -0.0747    0.7400 C   0  0  0  0  0  0  0  0  0  0  0  0
   -0.0366    0.0883   -0.7394 C   0  0  0  0  0  0  0  0  0  0  0  0
   -0.9298    0.9976   -1.2919 C   0  0  0  0  0  0  0  0  0  0  0  0
   -0.9813    1.0969   -2.6703 C   0  0  0  0  0  0  0  0  0  0  0  0
   -0.1481    0.3063   -3.4454 C   0  0  0  0  0  0  0  0  0  0  0  0
    0.7093   -0.5515   -2.7791 C   0  0  0  0  0  0  0  0  0  0  0  0
    1.8996   -1.6618   -3.7594 Br  0  0  0  0  0  0  0  0  0  0  0  0
    0.7796   -0.6765   -1.4758 N   0  0  0  0  0  0  0  0  0  0  0  0
   -0.7303    0.7255    1.4787 N   0  0  0  0  0  0  0  0  0  0  0  0
    0.1411   -0.3707    4.5275 H   0  0  0  0  0  0  0  0  0  0  0  0
    1.5921   -1.8623    3.1332 H   0  0  0  0  0  0  0  0  0  0  0  0
    1.5147   -1.6440    0.6578 H   0  0  0  0  0  0  0  0  0  0  0  0
   -1.5626    1.5984   -0.6563 H   0  0  0  0  0  0  0  0  0  0  0  0
   -1.6668    1.7886   -3.1424 H   0  0  0  0  0  0  0  0  0  0  0  0
   -0.1608    0.3511   -4.5294 H   0  0  0  0  0  0  0  0  0  0  0  0
  1  2  1  0
  2  3  1  0
  3  4  2  0
  4  5  1  0
  5  6  2  0
  6  7  1  0
  7  8  2  0
  8  9  1  0
  9 10  2  0
 10 11  1  0
 11 12  1  0
 11 13  2  0
  6 14  1  0
 14  2  2  0
 13  7  1  0
  3 15  1  0
  4 16  1  0
  5 17  1  0
  8 18  1  0
  9 19  1  0
 10 20  1  0
M  END
$$$$

     RDKit          3D

 20 21  0  0  0  0  0  0  0  0999 V2000
   -1.6254   -3.9599    1.5008 Br  0  0  0  0  0  0  0  0  0  0  0  0
   -0.6718   -2.8272    0.3082 C   0  0  0  0  0  0  0  0  0  0  0  0
   -0.0598   -3.3639   -0.8118 C   0  0  0  0  0  0  0  0  0  0  0  0
    0.6232   -2.4897   -1.6413 C   0  0  0  0  0  0  0  0  0  0  0  0
    0.6698   -1.1451   -1.3241 C   0  0  0  0  0  0  0  0  0  0  0  0
    0.0055   -0.7241   -0.1777 C   0  0  0  0  0  0  0  0  0  0  0  0
    0.0042    0.7179    0.1986 C   0  0  0  0  0  0  0  0  0  0  0  0
   -0.6776    1.1519    1.3294 C   0  0  0  0  0  0  0  0  0  0  0  0
   -0.6489    2.5020    1.6234 C   0  0  0  0  0  0  0  0  0  0  0  0
    0.0538    3.3664    0.7986 C   0  0  0  0  0  0  0  0  0  0  0  0
    0.6943    2.8152   -0.2976 C   0  0  0  0  0  0  0  0  0  0  0  0
    1.6861    3.9248   -1.4808 Br  0  0  0  0  0  0  0  0  0  0  0  0
    0.6846    1.5436   -0.6064 N   0  0  0  0  0  0  0  0  0  0  0  0
   -0.6565   -1.5579    0.6329 N   0  0  0  0  0  0  0  0  0  0  0  0
   -0.1170   -4.4268   -1.0206 H   0  0  0  0  0  0  0  0  0  0  0  0
    1.1202   -2.8593   -2.5295 H   0  0  0  0  0  0  0  0  0  0  0  0
    1.1982   -0.4344   -1.9404 H   0  0  0  0  0  0  0  0  0  0  0  0
   -1.2154    0.4537    1.9513 H   0  0  0  0  0  0  0  0  0  0  0  0
   -1.1706    2.8816    2.4924 H   0  0  0  0  0  0  0  0  0  0  0  0
    0.1030    4.4313    0.9945 H   0  0  0  0  0  0  0  0  0  0  0  0
  1  2  1  0
  2  3  1  0
  3  4  2  0
  4  5  1  0
  5  6  2  0
  6  7  1  0
  7  8  2  0
  8  9  1  0
  9 10  2  0
 10 11  1  0
 11 12  1  0
 11 13  2  0
  6 14  1  0
 14  2  2  0
 13  7  1  0
  3 15  1  0
  4 16  1  0
  5 17  1  0
  8 18  1  0
  9 19  1  0
 10 20  1  0
M  END
$$$$

     RDKit          3D

 20 21  0  0  0  0  0  0  0  0999 V2000
   -1.8514    4.0871    0.5286 Br  0  0  0  0  0  0  0  0  0  0  0  0
   -0.5461    2.8599   -0.1097 C   0  0  0  0  0  0  0  0  0  0  0  0
    0.5339    3.3123   -0.8489 C   0  0  0  0  0  0  0  0  0  0  0  0
    1.4424    2.3618   -1.2889 C   0  0  0  0  0  0  0  0  0  0  0  0
    1.2454    1.0295   -0.9753 C   0  0  0  0  0  0  0  0  0  0  0  0
    0.1291    0.7009   -0.2154 C   0  0  0  0  0  0  0  0  0  0  0  0
   -0.1321   -0.7122    0.1797 C   0  0  0  0  0  0  0  0  0  0  0  0
   -1.2551   -1.0296    0.9355 C   0  0  0  0  0  0  0  0  0  0  0  0
   -1.4429   -2.3519    1.2895 C   0  0  0  0  0  0  0  0  0  0  0  0
   -0.5268   -3.3070    0.8795 C   0  0  0  0  0  0  0  0  0  0  0  0
    0.5490   -2.8691    0.1255 C   0  0  0  0  0  0  0  0  0  0  0  0
    1.8613   -4.1042   -0.4774 Br  0  0  0  0  0  0  0  0  0  0  0  0
    0.7588   -1.6244   -0.2232 N   0  0  0  0  0  0  0  0  0  0  0  0
   -0.7608    1.6084    0.2045 N   0  0  0  0  0  0  0  0  0  0  0  0
    0.6548    4.3672   -1.0717 H   0  0  0  0  0  0  0  0  0  0  0  0
    2.3011    2.6604   -1.8763 H   0  0  0  0  0  0  0  0  0  0  0  0
    1.9318    0.2654   -1.3047 H   0  0  0  0  0  0  0  0  0  0  0  0
   -1.9499   -0.2597    1.2340 H   0  0  0  0  0  0  0  0  0  0  0  0
   -2.3025   -2.6397    1.8811 H   0  0  0  0  0  0  0  0  0  0  0  0
   -0.6398   -4.3551    1.1339 H   0  0  0  0  0  0  0  0  0  0  0  0
  1  2  1  0
  2  3  1  0
  3  4  2  0
  4  5  1  0
  5  6  2  0
  6  7  1  0
  7  8  2  0
  8  9  1  0
  9 10  2  0
 10 11  1  0
 11 12  1  0
 11 13  2  0
  6 14  1  0
 14  2  2  0
 13  7  1  0
  3 15  1  0
  4 16  1  0
  5 17  1  0
  8 18  1  0
  9 19  1  0
 10 20  1  0
M  END
$$$$

     RDKit          3D

 20 21  0  0  0  0  0  0  0  0999 V2000
   -4.0075   -1.4864   -1.4968 Br  0  0  0  0  0  0  0  0  0  0  0  0
   -2.8102   -0.2038   -0.7741 C   0  0  0  0  0  0  0  0  0  0  0  0
   -3.2614    1.0649   -0.4533 C   0  0  0  0  0  0  0  0  0  0  0  0
   -2.3393    1.9485    0.0826 C   0  0  0  0  0  0  0  0  0  0  0  0
   -1.0353    1.5364    0.2799 C   0  0  0  0  0  0  0  0  0  0  0  0
   -0.7016    0.2378   -0.0869 C   0  0  0  0  0  0  0  0  0  0  0  0
    0.6928   -0.2560    0.0952 C   0  0  0  0  0  0  0  0  0  0  0  0
    1.0523   -1.5296   -0.3292 C   0  0  0  0  0  0  0  0  0  0  0  0
    2.3640   -1.9258   -0.1427 C   0  0  0  0  0  0  0  0  0  0  0  0
    3.2650   -1.0565    0.4529 C   0  0  0  0  0  0  0  0  0  0  0  0
    2.7861    0.1848    0.8377 C   0  0  0  0  0  0  0  0  0  0  0  0
    3.9375    1.4446    1.6743 Br  0  0  0  0  0  0  0  0  0  0  0  0
    1.5500    0.5899    0.6791 N   0  0  0  0  0  0  0  0  0  0  0  0
   -1.5787   -0.6253   -0.6118 N   0  0  0  0  0  0  0  0  0  0  0  0
   -4.2965    1.3468   -0.6171 H   0  0  0  0  0  0  0  0  0  0  0  0
   -2.6393    2.9544    0.3454 H   0  0  0  0  0  0  0  0  0  0  0  0
   -0.2940    2.1943    0.7074 H   0  0  0  0  0  0  0  0  0  0  0  0
    0.3259   -2.1830   -0.7882 H   0  0  0  0  0  0  0  0  0  0  0  0
    2.6862   -2.9084   -0.4614 H   0  0  0  0  0  0  0  0  0  0  0  0
    4.3039   -1.3277    0.6069 H   0  0  0  0  0  0  0  0  0  0  0  0
  1  2  1  0
  2  3  1  0
  3  4  2  0
  4  5  1  0
  5  6  2  0
  6  7  1  0
  7  8  2  0
  8  9  1  0
  9 10  2  0
 10 11  1  0
 11 12  1  0
 11 13  2  0
  6 14  1  0
 14  2  2  0
 13  7  1  0
  3 15  1  0
  4 16  1  0
  5 17  1  0
  8 18  1  0
  9 19  1  0
 10 20  1  0
M  END
$$$$

     RDKit          3D

 20 21  0  0  0  0  0  0  0  0999 V2000
    0.2854    4.4918    0.3971 Br  0  0  0  0  0  0  0  0  0  0  0  0
   -0.1365    2.8705   -0.4990 C   0  0  0  0  0  0  0  0  0  0  0  0
   -0.6739    2.8946   -1.7748 C   0  0  0  0  0  0  0  0  0  0  0  0
   -0.9546    1.6733   -2.3667 C   0  0  0  0  0  0  0  0  0  0  0  0
   -0.6937    0.5035   -1.6772 C   0  0  0  0  0  0  0  0  0  0  0  0
   -0.1532    0.6095   -0.4009 C   0  0  0  0  0  0  0  0  0  0  0  0
    0.1503   -0.6124    0.3965 C   0  0  0  0  0  0  0  0  0  0  0  0
    0.6867   -0.5024    1.6745 C   0  0  0  0  0  0  0  0  0  0  0  0
    0.9442   -1.6692    2.3695 C   0  0  0  0  0  0  0  0  0  0  0  0
    0.6702   -2.8924    1.7787 C   0  0  0  0  0  0  0  0  0  0  0  0
    0.1434   -2.8733    0.4983 C   0  0  0  0  0  0  0  0  0  0  0  0
   -0.2490   -4.5012   -0.4004 Br  0  0  0  0  0  0  0  0  0  0  0  0
   -0.1175   -1.7873   -0.1859 N   0  0  0  0  0  0  0  0  0  0  0  0
    0.1228    1.7822    0.1825 N   0  0  0  0  0  0  0  0  0  0  0  0
   -0.8641    3.8351   -2.2808 H   0  0  0  0  0  0  0  0  0  0  0  0
   -1.3743    1.6345   -3.3635 H   0  0  0  0  0  0  0  0  0  0  0  0
   -0.8969   -0.4632   -2.1116 H   0  0  0  0  0  0  0  0  0  0  0  0
    0.8996    0.4641    2.1026 H   0  0  0  0  0  0  0  0  0  0  0  0
    1.3575   -1.6272    3.3692 H   0  0  0  0  0  0  0  0  0  0  0  0
    0.8533   -3.8306    2.2918 H   0  0  0  0  0  0  0  0  0  0  0  0
  1  2  1  0
  2  3  1  0
  3  4  2  0
  4  5  1  0
  5  6  2  0
  6  7  1  0
  7  8  2  0
  8  9  1  0
  9 10  2  0
 10 11  1  0
 11 12  1  0
 11 13  2  0
  6 14  1  0
 14  2  2  0
 13  7  1  0
  3 15  1  0
  4 16  1  0
  5 17  1  0
  8 18  1  0
  9 19  1  0
 10 20  1  0
M  END
$$$$

     RDKit          3D

 20 21  0  0  0  0  0  0  0  0999 V2000
   -3.6150    1.7284   -2.0943 Br  0  0  0  0  0  0  0  0  0  0  0  0
   -1.8349    1.7564   -1.4264 C   0  0  0  0  0  0  0  0  0  0  0  0
   -1.0532    2.8868   -1.5888 C   0  0  0  0  0  0  0  0  0  0  0  0
    0.2346    2.8447   -1.0780 C   0  0  0  0  0  0  0  0  0  0  0  0
    0.6793    1.7028   -0.4368 C   0  0  0  0  0  0  0  0  0  0  0  0
   -0.2015    0.6330   -0.3345 C   0  0  0  0  0  0  0  0  0  0  0  0
    0.2132   -0.6267    0.3446 C   0  0  0  0  0  0  0  0  0  0  0  0
   -0.6774   -1.6894    0.4448 C   0  0  0  0  0  0  0  0  0  0  0  0
   -0.2407   -2.8380    1.0771 C   0  0  0  0  0  0  0  0  0  0  0  0
    1.0480   -2.8940    1.5831 C   0  0  0  0  0  0  0  0  0  0  0  0
    1.8406   -1.7701    1.4237 C   0  0  0  0  0  0  0  0  0  0  0  0
    3.6202   -1.7524    2.0831 Br  0  0  0  0  0  0  0  0  0  0  0  0
    1.4583   -0.6646    0.8335 N   0  0  0  0  0  0  0  0  0  0  0  0
   -1.4481    0.6585   -0.8268 N   0  0  0  0  0  0  0  0  0  0  0  0
   -1.4408    3.7643   -2.0957 H   0  0  0  0  0  0  0  0  0  0  0  0
    0.8901    3.6993   -1.1825 H   0  0  0  0  0  0  0  0  0  0  0  0
    1.6746    1.6417   -0.0232 H   0  0  0  0  0  0  0  0  0  0  0  0
   -1.6758   -1.6118    0.0405 H   0  0  0  0  0  0  0  0  0  0  0  0
   -0.9004   -3.6907    1.1749 H   0  0  0  0  0  0  0  0  0  0  0  0
    1.4287   -3.7783    2.0818 H   0  0  0  0  0  0  0  0  0  0  0  0
  1  2  1  0
  2  3  1  0
  3  4  2  0
  4  5  1  0
  5  6  2  0
  6  7  1  0
  7  8  2  0
  8  9  1  0
  9 10  2  0
 10 11  1  0
 11 12  1  0
 11 13  2  0
  6 14  1  0
 14  2  2  0
 13  7  1  0
  3 15  1  0
  4 16  1  0
  5 17  1  0
  8 18  1  0
  9 19  1  0
 10 20  1  0
M  END
$$$$

     RDKit          3D

 20 21  0  0  0  0  0  0  0  0999 V2000
   -0.5066   -3.0224    3.3220 Br  0  0  0  0  0  0  0  0  0  0  0  0
   -0.6002   -1.2909    2.5436 C   0  0  0  0  0  0  0  0  0  0  0  0
   -1.0641   -0.2187    3.2857 C   0  0  0  0  0  0  0  0  0  0  0  0
   -1.1040    1.0160    2.6580 C   0  0  0  0  0  0  0  0  0  0  0  0
   -0.6917    1.1272    1.3438 C   0  0  0  0  0  0  0  0  0  0  0  0
   -0.2409   -0.0214    0.7050 C   0  0  0  0  0  0  0  0  0  0  0  0
    0.2268    0.0327   -0.7096 C   0  0  0  0  0  0  0  0  0  0  0  0
    0.7361   -1.1078   -1.3183 C   0  0  0  0  0  0  0  0  0  0  0  0
    1.1597   -1.0051   -2.6296 C   0  0  0  0  0  0  0  0  0  0  0  0
    1.0589    0.2088   -3.2895 C   0  0  0  0  0  0  0  0  0  0  0  0
    0.5316    1.2735   -2.5787 C   0  0  0  0  0  0  0  0  0  0  0  0
    0.3610    2.9785   -3.4010 Br  0  0  0  0  0  0  0  0  0  0  0  0
    0.1279    1.2132   -1.3337 N   0  0  0  0  0  0  0  0  0  0  0  0
   -0.1940   -1.2195    1.3007 N   0  0  0  0  0  0  0  0  0  0  0  0
   -1.3798   -0.3468    4.3144 H   0  0  0  0  0  0  0  0  0  0  0  0
   -1.4569    1.8873    3.1938 H   0  0  0  0  0  0  0  0  0  0  0  0
   -0.7120    2.0727    0.8265 H   0  0  0  0  0  0  0  0  0  0  0  0
    0.8081   -2.0370   -0.7731 H   0  0  0  0  0  0  0  0  0  0  0  0
    1.5645   -1.8689   -3.1398 H   0  0  0  0  0  0  0  0  0  0  0  0
    1.3755    0.3286   -4.3201 H   0  0  0  0  0  0  0  0  0  0  0  0
  1  2  1  0
  2  3  1  0
  3  4  2  0
  4  5  1  0
  5  6  2  0
  6  7  1  0
  7  8  2  0
  8  9  1  0
  9 10  2  0
 10 11  1  0
 11 12  1  0
 11 13  2  0
  6 14  1  0
 14  2  2  0
 13  7  1  0
  3 15  1  0
  4 16  1  0
  5 17  1  0
  8 18  1  0
  9 19  1  0
 10 20  1  0
M  END
$$$$

     RDKit          3D

 20 21  0  0  0  0  0  0  0  0999 V2000
   -1.7322    3.7833   -1.7924 Br  0  0  0  0  0  0  0  0  0  0  0  0
   -0.3958    2.4608   -1.5264 C   0  0  0  0  0  0  0  0  0  0  0  0
    0.8156    2.5567   -2.1893 C   0  0  0  0  0  0  0  0  0  0  0  0
    1.7436    1.5546   -1.9569 C   0  0  0  0  0  0  0  0  0  0  0  0
    1.4321    0.5213   -1.0933 C   0  0  0  0  0  0  0  0  0  0  0  0
    0.1840    0.5384   -0.4831 C   0  0  0  0  0  0  0  0  0  0  0  0
   -0.1988   -0.5448    0.4676 C   0  0  0  0  0  0  0  0  0  0  0  0
   -1.4510   -0.5406    1.0691 C   0  0  0  0  0  0  0  0  0  0  0  0
   -1.7454   -1.5621    1.9532 C   0  0  0  0  0  0  0  0  0  0  0  0
   -0.8026   -2.5453    2.2041 C   0  0  0  0  0  0  0  0  0  0  0  0
    0.4064   -2.4452    1.5387 C   0  0  0  0  0  0  0  0  0  0  0  0
    1.7547   -3.7544    1.8189 Br  0  0  0  0  0  0  0  0  0  0  0  0
    0.7201   -1.4927    0.6947 N   0  0  0  0  0  0  0  0  0  0  0  0
   -0.7230    1.4982   -0.7003 N   0  0  0  0  0  0  0  0  0  0  0  0
    1.0195    3.3848   -2.8594 H   0  0  0  0  0  0  0  0  0  0  0  0
    2.7063    1.5773   -2.4501 H   0  0  0  0  0  0  0  0  0  0  0  0
    2.1331   -0.2736   -0.8903 H   0  0  0  0  0  0  0  0  0  0  0  0
   -2.1637    0.2409    0.8566 H   0  0  0  0  0  0  0  0  0  0  0  0
   -2.7074   -1.5946    2.4470 H   0  0  0  0  0  0  0  0  0  0  0  0
   -0.9956   -3.3629    2.8915 H   0  0  0  0  0  0  0  0  0  0  0  0
  1  2  1  0
  2  3  1  0
  3  4  2  0
  4  5  1  0
  5  6  2  0
  6  7  1  0
  7  8  2  0
  8  9  1  0
  9 10  2  0
 10 11  1  0
 11 12  1  0
 11 13  2  0
  6 14  1  0
 14  2  2  0
 13  7  1  0
  3 15  1  0
  4 16  1  0
  5 17  1  0
  8 18  1  0
  9 19  1  0
 10 20  1  0
M  END
$$$$

     RDKit          3D

 20 21  0  0  0  0  0  0  0  0999 V2000
   -2.6444   -1.3806   -3.4068 Br  0  0  0  0  0  0  0  0  0  0  0  0
   -2.1747   -1.1370   -1.5837 C   0  0  0  0  0  0  0  0  0  0  0  0
   -3.0237   -1.5802   -0.5838 C   0  0  0  0  0  0  0  0  0  0  0  0
   -2.6272   -1.3646    0.7262 C   0  0  0  0  0  0  0  0  0  0  0  0
   -1.4232   -0.7351    0.9784 C   0  0  0  0  0  0  0  0  0  0  0  0
   -0.6553   -0.3404   -0.1107 C   0  0  0  0  0  0  0  0  0  0  0  0
    0.6536    0.3397    0.1026 C   0  0  0  0  0  0  0  0  0  0  0  0
    1.4220    0.7439   -0.9827 C   0  0  0  0  0  0  0  0  0  0  0  0
    2.6286    1.3660   -0.7240 C   0  0  0  0  0  0  0  0  0  0  0  0
    3.0271    1.5691    0.5874 C   0  0  0  0  0  0  0  0  0  0  0  0
    2.1736    1.1282    1.5839 C   0  0  0  0  0  0  0  0  0  0  0  0
    2.6372    1.3781    3.4125 Br  0  0  0  0  0  0  0  0  0  0  0  0
    1.0270    0.5286    1.3756 N   0  0  0  0  0  0  0  0  0  0  0  0
   -1.0267   -0.5396   -1.3811 N   0  0  0  0  0  0  0  0  0  0  0  0
   -3.9576   -2.0739   -0.8274 H   0  0  0  0  0  0  0  0  0  0  0  0
   -3.2558   -1.6841    1.5473 H   0  0  0  0  0  0  0  0  0  0  0  0
   -1.0848   -0.5485    1.9859 H   0  0  0  0  0  0  0  0  0  0  0  0
    1.0811    0.5776   -1.9918 H   0  0  0  0  0  0  0  0  0  0  0  0
    3.2587    1.6952   -1.5402 H   0  0  0  0  0  0  0  0  0  0  0  0
    3.9646    2.0576    0.8323 H   0  0  0  0  0  0  0  0  0  0  0  0
  1  2  1  0
  2  3  1  0
  3  4  2  0
  4  5  1  0
  5  6  2  0
  6  7  1  0
  7  8  2  0
  8  9  1  0
  9 10  2  0
 10 11  1  0
 11 12  1  0
 11 13  2  0
  6 14  1  0
 14  2  2  0
 13  7  1  0
  3 15  1  0
  4 16  1  0
  5 17  1  0
  8 18  1  0
  9 19  1  0
 10 20  1  0
M  END
$$$$

     RDKit          3D

 20 21  0  0  0  0  0  0  0  0999 V2000
    0.7760   -0.2324   -4.4543 Br  0  0  0  0  0  0  0  0  0  0  0  0
    0.2711   -0.9231   -2.7592 C   0  0  0  0  0  0  0  0  0  0  0  0
   -0.1081   -2.2485   -2.6314 C   0  0  0  0  0  0  0  0  0  0  0  0
   -0.4607   -2.6859   -1.3641 C   0  0  0  0  0  0  0  0  0  0  0  0
   -0.4219   -1.8038   -0.3002 C   0  0  0  0  0  0  0  0  0  0  0  0
   -0.0234   -0.4979   -0.5542 C   0  0  0  0  0  0  0  0  0  0  0  0
    0.0360    0.4961    0.5551 C   0  0  0  0  0  0  0  0  0  0  0  0
    0.4216    1.8060    0.3003 C   0  0  0  0  0  0  0  0  0  0  0  0
    0.4536    2.6884    1.3636 C   0  0  0  0  0  0  0  0  0  0  0  0
    0.1038    2.2480    2.6300 C   0  0  0  0  0  0  0  0  0  0  0  0
   -0.2595    0.9185    2.7588 C   0  0  0  0  0  0  0  0  0  0  0  0
   -0.7474    0.2216    4.4579 Br  0  0  0  0  0  0  0  0  0  0  0  0
   -0.2998    0.0547    1.7739 N   0  0  0  0  0  0  0  0  0  0  0  0
    0.3185   -0.0611   -1.7729 N   0  0  0  0  0  0  0  0  0  0  0  0
   -0.1295   -2.9086   -3.4924 H   0  0  0  0  0  0  0  0  0  0  0  0
   -0.7716   -3.7098   -1.2089 H   0  0  0  0  0  0  0  0  0  0  0  0
   -0.6893   -2.1096    0.7010 H   0  0  0  0  0  0  0  0  0  0  0  0
    0.6838    2.1161   -0.6988 H   0  0  0  0  0  0  0  0  0  0  0  0
    0.7414    3.7197    1.2075 H   0  0  0  0  0  0  0  0  0  0  0  0
    0.1052    2.9116    3.4883 H   0  0  0  0  0  0  0  0  0  0  0  0
  1  2  1  0
  2  3  1  0
  3  4  2  0
  4  5  1  0
  5  6  2  0
  6  7  1  0
  7  8  2  0
  8  9  1  0
  9 10  2  0
 10 11  1  0
 11 12  1  0
 11 13  2  0
  6 14  1  0
 14  2  2  0
 13  7  1  0
  3 15  1  0
  4 16  1  0
  5 17  1  0
  8 18  1  0
  9 19  1  0
 10 20  1  0
M  END
$$$$

     RDKit          3D

 20 21  0  0  0  0  0  0  0  0999 V2000
    0.0666    1.9466   -4.0778 Br  0  0  0  0  0  0  0  0  0  0  0  0
   -0.6626    0.8493   -2.7090 C   0  0  0  0  0  0  0  0  0  0  0  0
   -1.8549    0.1774   -2.9168 C   0  0  0  0  0  0  0  0  0  0  0  0
   -2.3252   -0.6136   -1.8802 C   0  0  0  0  0  0  0  0  0  0  0  0
   -1.6043   -0.6992   -0.7038 C   0  0  0  0  0  0  0  0  0  0  0  0
   -0.4215    0.0236   -0.6142 C   0  0  0  0  0  0  0  0  0  0  0  0
    0.4057   -0.0282    0.6252 C   0  0  0  0  0  0  0  0  0  0  0  0
    1.5753    0.7175    0.7126 C   0  0  0  0  0  0  0  0  0  0  0  0
    2.3127    0.6316    1.8785 C   0  0  0  0  0  0  0  0  0  0  0  0
    1.8676   -0.1774    2.9109 C   0  0  0  0  0  0  0  0  0  0  0  0
    0.6863   -0.8707    2.7068 C   0  0  0  0  0  0  0  0  0  0  0  0
   -0.0016   -2.0016    4.0702 Br  0  0  0  0  0  0  0  0  0  0  0  0
   -0.0357   -0.8145    1.6144 N   0  0  0  0  0  0  0  0  0  0  0  0
    0.0420    0.7937   -1.6077 N   0  0  0  0  0  0  0  0  0  0  0  0
   -2.3884    0.2667   -3.8563 H   0  0  0  0  0  0  0  0  0  0  0  0
   -3.2503   -1.1633   -1.9923 H   0  0  0  0  0  0  0  0  0  0  0  0
   -1.9459   -1.3050    0.1217 H   0  0  0  0  0  0  0  0  0  0  0  0
    1.8900    1.3400   -0.1106 H   0  0  0  0  0  0  0  0  0  0  0  0
    3.2274    1.2002    1.9871 H   0  0  0  0  0  0  0  0  0  0  0  0
    2.4168   -0.2731    3.8414 H   0  0  0  0  0  0  0  0  0  0  0  0
  1  2  1  0
  2  3  1  0
  3  4  2  0
  4  5  1  0
  5  6  2  0
  6  7  1  0
  7  8  2  0
  8  9  1  0
  9 10  2  0
 10 11  1  0
 11 12  1  0
 11 13  2  0
  6 14  1  0
 14  2  2  0
 13  7  1  0
  3 15  1  0
  4 16  1  0
  5 17  1  0
  8 18  1  0
  9 19  1  0
 10 20  1  0
M  END
$$$$
