
     RDKit          3D

 26 27  0  0  0  0  0  0  0  0999 V2000
    2.7258    3.5612    2.1852 C   0  0  0  0  0  0  0  0  0  0  0  0
    1.9581    2.4896    1.4921 C   0  0  0  0  0  0  0  0  0  0  0  0
    2.5245    1.6335    0.5434 C   0  0  0  0  0  0  0  0  0  0  0  0
    1.7578    0.6585   -0.0552 C   0  0  0  0  0  0  0  0  0  0  0  0
    0.4232    0.5335    0.2954 C   0  0  0  0  0  0  0  0  0  0  0  0
   -0.4303   -0.5092   -0.3230 C   0  0  0  0  0  0  0  0  0  0  0  0
   -1.7841   -0.5855   -0.0363 C   0  0  0  0  0  0  0  0  0  0  0  0
   -2.5437   -1.5743   -0.6202 C   0  0  0  0  0  0  0  0  0  0  0  0
   -1.9503   -2.4928   -1.4924 C   0  0  0  0  0  0  0  0  0  0  0  0
   -2.7122   -3.6046   -2.1277 C   0  0  0  0  0  0  0  0  0  0  0  0
   -0.5843   -2.3178   -1.7214 C   0  0  0  0  0  0  0  0  0  0  0  0
    0.1610   -1.3679   -1.1652 N   0  0  0  0  0  0  0  0  0  0  0  0
   -0.1440    1.3414    1.1985 N   0  0  0  0  0  0  0  0  0  0  0  0
    0.6058    2.2787    1.7685 C   0  0  0  0  0  0  0  0  0  0  0  0
    2.2587    4.5311    2.0380 H   0  0  0  0  0  0  0  0  0  0  0  0
    2.7596    3.3794    3.2552 H   0  0  0  0  0  0  0  0  0  0  0  0
    3.7493    3.6208    1.8212 H   0  0  0  0  0  0  0  0  0  0  0  0
    3.5661    1.7438    0.2784 H   0  0  0  0  0  0  0  0  0  0  0  0
    2.1786   -0.0156   -0.7909 H   0  0  0  0  0  0  0  0  0  0  0  0
   -2.2300    0.1316    0.6397 H   0  0  0  0  0  0  0  0  0  0  0  0
   -3.6019   -1.6466   -0.4108 H   0  0  0  0  0  0  0  0  0  0  0  0
   -2.5540   -4.5328   -1.5866 H   0  0  0  0  0  0  0  0  0  0  0  0
   -3.7791   -3.4074   -2.1263 H   0  0  0  0  0  0  0  0  0  0  0  0
   -2.3906   -3.7662   -3.1538 H   0  0  0  0  0  0  0  0  0  0  0  0
   -0.0653   -2.9873   -2.4028 H   0  0  0  0  0  0  0  0  0  0  0  0
    0.1013    2.9049    2.4971 H   0  0  0  0  0  0  0  0  0  0  0  0
  1  2  1  0
  2  3  2  0
  3  4  1  0
  4  5  2  0
  5  6  1  0
  6  7  2  0
  7  8  1  0
  8  9  2  0
  9 10  1  0
  9 11  1  0
 11 12  2  0
  5 13  1  0
 13 14  2  0
 14  2  1  0
 12  6  1  0
  1 15  1  0
  1 16  1  0
  1 17  1  0
  3 18  1  0
  4 19  1  0
  7 20  1  0
  8 21  1  0
 10 22  1  0
 10 23  1  0
 10 24  1  0
 11 25  1  0
 14 26  1  0
M  END
$$$$

     RDKit          3D

 26 27  0  0  0  0  0  0  0  0999 V2000
   -2.8122   -1.2790    3.9167 C   0  0  0  0  0  0  0  0  0  0  0  0
   -2.0129   -0.8616    2.7307 C   0  0  0  0  0  0  0  0  0  0  0  0
   -2.4118    0.1657    1.8698 C   0  0  0  0  0  0  0  0  0  0  0  0
   -1.6206    0.5154    0.7975 C   0  0  0  0  0  0  0  0  0  0  0  0
   -0.4316   -0.1627    0.5789 C   0  0  0  0  0  0  0  0  0  0  0  0
    0.4432    0.1782   -0.5674 C   0  0  0  0  0  0  0  0  0  0  0  0
    1.6278   -0.5054   -0.7885 C   0  0  0  0  0  0  0  0  0  0  0  0
    2.4115   -0.1691   -1.8705 C   0  0  0  0  0  0  0  0  0  0  0  0
    2.0107    0.8540   -2.7342 C   0  0  0  0  0  0  0  0  0  0  0  0
    2.8027    1.2687   -3.9261 C   0  0  0  0  0  0  0  0  0  0  0  0
    0.8050    1.4816   -2.4145 C   0  0  0  0  0  0  0  0  0  0  0  0
    0.0396    1.1683   -1.3743 N   0  0  0  0  0  0  0  0  0  0  0  0
   -0.0283   -1.1506    1.3877 N   0  0  0  0  0  0  0  0  0  0  0  0
   -0.7996   -1.4770    2.4181 C   0  0  0  0  0  0  0  0  0  0  0  0
   -3.8042   -0.8362    3.9067 H   0  0  0  0  0  0  0  0  0  0  0  0
   -2.9217   -2.3613    3.9515 H   0  0  0  0  0  0  0  0  0  0  0  0
   -2.3233   -0.9747    4.8366 H   0  0  0  0  0  0  0  0  0  0  0  0
   -3.3444    0.6805    2.0527 H   0  0  0  0  0  0  0  0  0  0  0  0
   -1.9094    1.3096    0.1221 H   0  0  0  0  0  0  0  0  0  0  0  0
    1.9228   -1.2928   -0.1075 H   0  0  0  0  0  0  0  0  0  0  0  0
    3.3355   -0.6958   -2.0594 H   0  0  0  0  0  0  0  0  0  0  0  0
    3.1497    2.2911   -3.8241 H   0  0  0  0  0  0  0  0  0  0  0  0
    2.1958    1.2250   -4.8282 H   0  0  0  0  0  0  0  0  0  0  0  0
    3.6714    0.6304   -4.0708 H   0  0  0  0  0  0  0  0  0  0  0  0
    0.4381    2.2872   -3.0437 H   0  0  0  0  0  0  0  0  0  0  0  0
   -0.4337   -2.2894    3.0401 H   0  0  0  0  0  0  0  0  0  0  0  0
  1  2  1  0
  2  3  2  0
  3  4  1  0
  4  5  2  0
  5  6  1  0
  6  7  2  0
  7  8  1  0
  8  9  2  0
  9 10  1  0
  9 11  1  0
 11 12  2  0
  5 13  1  0
 13 14  2  0
 14  2  1  0
 12  6  1  0
  1 15  1  0
  1 16  1  0
  1 17  1  0
  3 18  1  0
  4 19  1  0
  7 20  1  0
  8 21  1  0
 10 22  1  0
 10 23  1  0
 10 24  1  0
 11 25  1  0
 14 26  1  0
M  END
$$$$

     RDKit          3D

 26 27  0  0  0  0  0  0  0  0999 V2000
    2.4814   -4.1702    1.1602 C   0  0  0  0  0  0  0  0  0  0  0  0
    1.7491   -2.9127    0.8435 C   0  0  0  0  0  0  0  0  0  0  0  0
    1.8450   -1.7795    1.6580 C   0  0  0  0  0  0  0  0  0  0  0  0
    1.1591   -0.6340    1.3281 C   0  0  0  0  0  0  0  0  0  0  0  0
    0.3764   -0.6124    0.1832 C   0  0  0  0  0  0  0  0  0  0  0  0
   -0.3744    0.6075   -0.2003 C   0  0  0  0  0  0  0  0  0  0  0  0
   -1.1363    0.6432   -1.3580 C   0  0  0  0  0  0  0  0  0  0  0  0
   -1.8250    1.7907   -1.6799 C   0  0  0  0  0  0  0  0  0  0  0  0
   -1.7602    2.9072   -0.8381 C   0  0  0  0  0  0  0  0  0  0  0  0
   -2.4914    4.1708   -1.1395 C   0  0  0  0  0  0  0  0  0  0  0  0
   -0.9607    2.7651    0.2973 C   0  0  0  0  0  0  0  0  0  0  0  0
   -0.2842    1.6629    0.6163 N   0  0  0  0  0  0  0  0  0  0  0  0
    0.2674   -1.6792   -0.6144 N   0  0  0  0  0  0  0  0  0  0  0  0
    0.9372   -2.7840   -0.2837 C   0  0  0  0  0  0  0  0  0  0  0  0
    3.5518   -4.0180    1.0823 H   0  0  0  0  0  0  0  0  0  0  0  0
    2.1994   -4.9821    0.4917 H   0  0  0  0  0  0  0  0  0  0  0  0
    2.2888   -4.4830    2.1819 H   0  0  0  0  0  0  0  0  0  0  0  0
    2.4602   -1.8178    2.5482 H   0  0  0  0  0  0  0  0  0  0  0  0
    1.2232    0.2518    1.9446 H   0  0  0  0  0  0  0  0  0  0  0  0
   -1.1792   -0.2321   -1.9929 H   0  0  0  0  0  0  0  0  0  0  0  0
   -2.4244    1.8391   -2.5789 H   0  0  0  0  0  0  0  0  0  0  0  0
   -2.0048    4.7172   -1.9375 H   0  0  0  0  0  0  0  0  0  0  0  0
   -3.5025    3.9599   -1.4777 H   0  0  0  0  0  0  0  0  0  0  0  0
   -2.5492    4.8203   -0.2680 H   0  0  0  0  0  0  0  0  0  0  0  0
   -0.8638    3.5903    0.9942 H   0  0  0  0  0  0  0  0  0  0  0  0
    0.8170   -3.6210   -0.9606 H   0  0  0  0  0  0  0  0  0  0  0  0
  1  2  1  0
  2  3  2  0
  3  4  1  0
  4  5  2  0
  5  6  1  0
  6  7  2  0
  7  8  1  0
  8  9  2  0
  9 10  1  0
  9 11  1  0
 11 12  2  0
  5 13  1  0
 13 14  2  0
 14  2  1  0
 12  6  1  0
  1 15  1  0
  1 16  1  0
  1 17  1  0
  3 18  1  0
  4 19  1  0
  7 20  1  0
  8 21  1  0
 10 22  1  0
 10 23  1  0
 10 24  1  0
 11 25  1  0
 14 26  1  0
M  END
$$$$

     RDKit          3D

 26 27  0  0  0  0  0  0  0  0999 V2000
   -0.4541    1.8813   -4.5977 C   0  0  0  0  0  0  0  0  0  0  0  0
   -0.3317    1.2744   -3.2430 C   0  0  0  0  0  0  0  0  0  0  0  0
    0.0046   -0.0719   -3.0606 C   0  0  0  0  0  0  0  0  0  0  0  0
    0.1161   -0.5880   -1.7891 C   0  0  0  0  0  0  0  0  0  0  0  0
   -0.0896    0.2412   -0.6965 C   0  0  0  0  0  0  0  0  0  0  0  0
    0.0460   -0.2685    0.6903 C   0  0  0  0  0  0  0  0  0  0  0  0
   -0.1218    0.5764    1.7776 C   0  0  0  0  0  0  0  0  0  0  0  0
    0.0174    0.0765    3.0526 C   0  0  0  0  0  0  0  0  0  0  0  0
    0.3190   -1.2757    3.2449 C   0  0  0  0  0  0  0  0  0  0  0  0
    0.4909   -1.8601    4.6045 C   0  0  0  0  0  0  0  0  0  0  0  0
    0.4662   -2.0365    2.0844 C   0  0  0  0  0  0  0  0  0  0  0  0
    0.3378   -1.5640    0.8456 N   0  0  0  0  0  0  0  0  0  0  0  0
   -0.4121    1.5308   -0.8426 N   0  0  0  0  0  0  0  0  0  0  0  0
   -0.5301    2.0149   -2.0772 C   0  0  0  0  0  0  0  0  0  0  0  0
    0.5217    2.0343   -5.0420 H   0  0  0  0  0  0  0  0  0  0  0  0
   -0.9639    2.8421   -4.5620 H   0  0  0  0  0  0  0  0  0  0  0  0
   -1.0007    1.2266   -5.2682 H   0  0  0  0  0  0  0  0  0  0  0  0
    0.1744   -0.6968   -3.9270 H   0  0  0  0  0  0  0  0  0  0  0  0
    0.3637   -1.6291   -1.6269 H   0  0  0  0  0  0  0  0  0  0  0  0
   -0.3579    1.6187    1.6101 H   0  0  0  0  0  0  0  0  0  0  0  0
   -0.1042    0.7204    3.9137 H   0  0  0  0  0  0  0  0  0  0  0  0
    0.4550   -2.9478    4.5797 H   0  0  0  0  0  0  0  0  0  0  0  0
   -0.2804   -1.5059    5.2810 H   0  0  0  0  0  0  0  0  0  0  0  0
    1.4392   -1.5618    5.0327 H   0  0  0  0  0  0  0  0  0  0  0  0
    0.6984   -3.0933    2.1583 H   0  0  0  0  0  0  0  0  0  0  0  0
   -0.8039    3.0620   -2.1426 H   0  0  0  0  0  0  0  0  0  0  0  0
  1  2  1  0
  2  3  2  0
  3  4  1  0
  4  5  2  0
  5  6  1  0
  6  7  2  0
  7  8  1  0
  8  9  2  0
  9 10  1  0
  9 11  1  0
 11 12  2  0
  5 13  1  0
 13 14  2  0
 14  2  1  0
 12  6  1  0
  1 15  1  0
  1 16  1  0
  1 17  1  0
  3 18  1  0
  4 19  1  0
  7 20  1  0
  8 21  1  0
 10 22  1  0
 10 23  1  0
 10 24  1  0
 11 25  1  0
 14 26  1  0
M  END
$$$$

     RDKit          3D

 26 27  0  0  0  0  0  0  0  0999 V2000
    4.1548    0.1794    2.7538 C   0  0  0  0  0  0  0  0  0  0  0  0
    2.9173    0.1868    1.9254 C   0  0  0  0  0  0  0  0  0  0  0  0
    2.3654    1.3527    1.3901 C   0  0  0  0  0  0  0  0  0  0  0  0
    1.2142    1.2897    0.6361 C   0  0  0  0  0  0  0  0  0  0  0  0
    0.6148    0.0617    0.4108 C   0  0  0  0  0  0  0  0  0  0  0  0
   -0.6228   -0.0441   -0.3997 C   0  0  0  0  0  0  0  0  0  0  0  0
   -1.1805   -1.2804   -0.6865 C   0  0  0  0  0  0  0  0  0  0  0  0
   -2.3252   -1.3463   -1.4472 C   0  0  0  0  0  0  0  0  0  0  0  0
   -2.9231   -0.1717   -1.9186 C   0  0  0  0  0  0  0  0  0  0  0  0
   -4.1617   -0.1914   -2.7452 C   0  0  0  0  0  0  0  0  0  0  0  0
   -2.2806    1.0168   -1.5726 C   0  0  0  0  0  0  0  0  0  0  0  0
   -1.1695    1.0938   -0.8416 N   0  0  0  0  0  0  0  0  0  0  0  0
    1.1238   -1.0733    0.9100 N   0  0  0  0  0  0  0  0  0  0  0  0
    2.2334   -0.9972    1.6386 C   0  0  0  0  0  0  0  0  0  0  0  0
    4.5491    1.1822    2.9004 H   0  0  0  0  0  0  0  0  0  0  0  0
    4.9288   -0.4224    2.2878 H   0  0  0  0  0  0  0  0  0  0  0  0
    3.9607   -0.2504    3.7326 H   0  0  0  0  0  0  0  0  0  0  0  0
    2.8449    2.3024    1.5756 H   0  0  0  0  0  0  0  0  0  0  0  0
    0.7717    2.1843    0.2168 H   0  0  0  0  0  0  0  0  0  0  0  0
   -0.7076   -2.1773   -0.3120 H   0  0  0  0  0  0  0  0  0  0  0  0
   -2.7723   -2.3020   -1.6869 H   0  0  0  0  0  0  0  0  0  0  0  0
   -4.9544   -0.7363   -2.2441 H   0  0  0  0  0  0  0  0  0  0  0  0
   -3.9858   -0.6971   -3.6885 H   0  0  0  0  0  0  0  0  0  0  0  0
   -4.5200    0.8143   -2.9558 H   0  0  0  0  0  0  0  0  0  0  0  0
   -2.6874    1.9652   -1.9056 H   0  0  0  0  0  0  0  0  0  0  0  0
    2.6121   -1.9396    2.0261 H   0  0  0  0  0  0  0  0  0  0  0  0
  1  2  1  0
  2  3  2  0
  3  4  1  0
  4  5  2  0
  5  6  1  0
  6  7  2  0
  7  8  1  0
  8  9  2  0
  9 10  1  0
  9 11  1  0
 11 12  2  0
  5 13  1  0
 13 14  2  0
 14  2  1  0
 12  6  1  0
  1 15  1  0
  1 16  1  0
  1 17  1  0
  3 18  1  0
  4 19  1  0
  7 20  1  0
  8 21  1  0
 10 22  1  0
 10 23  1  0
 10 24  1  0
 11 25  1  0
 14 26  1  0
M  END
$$$$

     RDKit          3D

 26 27  0  0  0  0  0  0  0  0999 V2000
    0.4372    4.7558    1.4465 C   0  0  0  0  0  0  0  0  0  0  0  0
    0.2593    3.3405    1.0163 C   0  0  0  0  0  0  0  0  0  0  0  0
   -0.8309    2.5692    1.4340 C   0  0  0  0  0  0  0  0  0  0  0  0
   -0.9406    1.2579    1.0302 C   0  0  0  0  0  0  0  0  0  0  0  0
    0.0325    0.7117    0.2061 C   0  0  0  0  0  0  0  0  0  0  0  0
   -0.0494   -0.7005   -0.2390 C   0  0  0  0  0  0  0  0  0  0  0  0
    0.9151   -1.2436   -1.0744 C   0  0  0  0  0  0  0  0  0  0  0  0
    0.8064   -2.5576   -1.4690 C   0  0  0  0  0  0  0  0  0  0  0  0
   -0.2629   -3.3393   -1.0177 C   0  0  0  0  0  0  0  0  0  0  0  0
   -0.4130   -4.7695   -1.4047 C   0  0  0  0  0  0  0  0  0  0  0  0
   -1.1768   -2.6935   -0.1852 C   0  0  0  0  0  0  0  0  0  0  0  0
   -1.0872   -1.4212    0.1995 N   0  0  0  0  0  0  0  0  0  0  0  0
    1.0816    1.4280   -0.2129 N   0  0  0  0  0  0  0  0  0  0  0  0
    1.1755    2.6951    0.1837 C   0  0  0  0  0  0  0  0  0  0  0  0
   -0.4948    5.3050    1.3722 H   0  0  0  0  0  0  0  0  0  0  0  0
    0.7458    4.8061    2.4861 H   0  0  0  0  0  0  0  0  0  0  0  0
    1.1914    5.2644    0.8493 H   0  0  0  0  0  0  0  0  0  0  0  0
   -1.5779    3.0129    2.0795 H   0  0  0  0  0  0  0  0  0  0  0  0
   -1.7738    0.6449    1.3474 H   0  0  0  0  0  0  0  0  0  0  0  0
    1.7429   -0.6299   -1.4018 H   0  0  0  0  0  0  0  0  0  0  0  0
    1.5429   -3.0021   -2.1261 H   0  0  0  0  0  0  0  0  0  0  0  0
   -1.2160   -5.2524   -0.8499 H   0  0  0  0  0  0  0  0  0  0  0  0
    0.5057   -5.3172   -1.2209 H   0  0  0  0  0  0  0  0  0  0  0  0
   -0.6219   -4.8629   -2.4630 H   0  0  0  0  0  0  0  0  0  0  0  0
   -2.0321   -3.2372    0.2008 H   0  0  0  0  0  0  0  0  0  0  0  0
    2.0407    3.2356   -0.1869 H   0  0  0  0  0  0  0  0  0  0  0  0
  1  2  1  0
  2  3  2  0
  3  4  1  0
  4  5  2  0
  5  6  1  0
  6  7  2  0
  7  8  1  0
  8  9  2  0
  9 10  1  0
  9 11  1  0
 11 12  2  0
  5 13  1  0
 13 14  2  0
 14  2  1  0
 12  6  1  0
  1 15  1  0
  1 16  1  0
  1 17  1  0
  3 18  1  0
  4 19  1  0
  7 20  1  0
  8 21  1  0
 10 22  1  0
 10 23  1  0
 10 24  1  0
 11 25  1  0
 14 26  1  0
M  END
$$$$

     RDKit          3D

 26 27  0  0  0  0  0  0  0  0999 V2000
    3.4608   -3.5766   -0.3584 C   0  0  0  0  0  0  0  0  0  0  0  0
    2.4559   -2.4807   -0.2753 C   0  0  0  0  0  0  0  0  0  0  0  0
    2.4513   -1.4065   -1.1714 C   0  0  0  0  0  0  0  0  0  0  0  0
    1.4944   -0.4227   -1.0642 C   0  0  0  0  0  0  0  0  0  0  0  0
    0.5400   -0.5036   -0.0610 C   0  0  0  0  0  0  0  0  0  0  0  0
   -0.5127    0.5317    0.0803 C   0  0  0  0  0  0  0  0  0  0  0  0
   -1.4174    0.4906    1.1316 C   0  0  0  0  0  0  0  0  0  0  0  0
   -2.3902    1.4590    1.2280 C   0  0  0  0  0  0  0  0  0  0  0  0
   -2.4614    2.4757    0.2696 C   0  0  0  0  0  0  0  0  0  0  0  0
   -3.5059    3.5355    0.3208 C   0  0  0  0  0  0  0  0  0  0  0  0
   -1.5012    2.4260   -0.7412 C   0  0  0  0  0  0  0  0  0  0  0  0
   -0.5515    1.4968   -0.8426 N   0  0  0  0  0  0  0  0  0  0  0  0
    0.5271   -1.5138    0.8145 N   0  0  0  0  0  0  0  0  0  0  0  0
    1.4553   -2.4627    0.6960 C   0  0  0  0  0  0  0  0  0  0  0  0
    4.4703   -3.1815   -0.3127 H   0  0  0  0  0  0  0  0  0  0  0  0
    3.3772   -4.1081   -1.2992 H   0  0  0  0  0  0  0  0  0  0  0  0
    3.3383   -4.2949    0.4502 H   0  0  0  0  0  0  0  0  0  0  0  0
    3.2054   -1.3616   -1.9462 H   0  0  0  0  0  0  0  0  0  0  0  0
    1.4738    0.4123   -1.7526 H   0  0  0  0  0  0  0  0  0  0  0  0
   -1.3440   -0.3044    1.8613 H   0  0  0  0  0  0  0  0  0  0  0  0
   -3.1065    1.4441    2.0390 H   0  0  0  0  0  0  0  0  0  0  0  0
   -3.3377    4.3074   -0.4273 H   0  0  0  0  0  0  0  0  0  0  0  0
   -4.4904    3.1114    0.1551 H   0  0  0  0  0  0  0  0  0  0  0  0
   -3.5341    4.0068    1.2980 H   0  0  0  0  0  0  0  0  0  0  0  0
   -1.4925    3.1844   -1.5154 H   0  0  0  0  0  0  0  0  0  0  0  0
    1.3956   -3.2645    1.4232 H   0  0  0  0  0  0  0  0  0  0  0  0
  1  2  1  0
  2  3  2  0
  3  4  1  0
  4  5  2  0
  5  6  1  0
  6  7  2  0
  7  8  1  0
  8  9  2  0
  9 10  1  0
  9 11  1  0
 11 12  2  0
  5 13  1  0
 13 14  2  0
 14  2  1  0
 12  6  1  0
  1 15  1  0
  1 16  1  0
  1 17  1  0
  3 18  1  0
  4 19  1  0
  7 20  1  0
  8 21  1  0
 10 22  1  0
 10 23  1  0
 10 24  1  0
 11 25  1  0
 14 26  1  0
M  END
$$$$

     RDKit          3D

 26 27  0  0  0  0  0  0  0  0999 V2000
    2.5434   -0.7371   -4.2281 C   0  0  0  0  0  0  0  0  0  0  0  0
    1.8189   -0.4786   -2.9533 C   0  0  0  0  0  0  0  0  0  0  0  0
    2.2456    0.4666   -2.0166 C   0  0  0  0  0  0  0  0  0  0  0  0
    1.5372    0.6511   -0.8503 C   0  0  0  0  0  0  0  0  0  0  0  0
    0.3987   -0.1034   -0.6179 C   0  0  0  0  0  0  0  0  0  0  0  0
   -0.3922    0.0778    0.6251 C   0  0  0  0  0  0  0  0  0  0  0  0
   -1.5283   -0.6770    0.8635 C   0  0  0  0  0  0  0  0  0  0  0  0
   -2.2421   -0.4739    2.0242 C   0  0  0  0  0  0  0  0  0  0  0  0
   -1.8198    0.4829    2.9522 C   0  0  0  0  0  0  0  0  0  0  0  0
   -2.5579    0.7660    4.2140 C   0  0  0  0  0  0  0  0  0  0  0  0
   -0.6576    1.1799    2.6180 C   0  0  0  0  0  0  0  0  0  0  0  0
    0.0387    0.9971    1.4999 N   0  0  0  0  0  0  0  0  0  0  0  0
   -0.0304   -1.0185   -1.4960 N   0  0  0  0  0  0  0  0  0  0  0  0
    0.6650   -1.1880   -2.6171 C   0  0  0  0  0  0  0  0  0  0  0  0
    1.8471   -0.9535   -5.0351 H   0  0  0  0  0  0  0  0  0  0  0  0
    3.1515    0.1151   -4.5178 H   0  0  0  0  0  0  0  0  0  0  0  0
    3.2049   -1.5912   -4.1324 H   0  0  0  0  0  0  0  0  0  0  0  0
    3.1345    1.0504   -2.2137 H   0  0  0  0  0  0  0  0  0  0  0  0
    1.8550    1.3754   -0.1125 H   0  0  0  0  0  0  0  0  0  0  0  0
   -1.8443   -1.4105    0.1329 H   0  0  0  0  0  0  0  0  0  0  0  0
   -3.1303   -1.0549    2.2277 H   0  0  0  0  0  0  0  0  0  0  0  0
   -3.3346    0.0256    4.3921 H   0  0  0  0  0  0  0  0  0  0  0  0
   -3.0338    1.7402    4.1707 H   0  0  0  0  0  0  0  0  0  0  0  0
   -1.8868    0.7725    5.0682 H   0  0  0  0  0  0  0  0  0  0  0  0
   -0.2663    1.9282    3.3011 H   0  0  0  0  0  0  0  0  0  0  0  0
    0.2837   -1.9424   -3.2990 H   0  0  0  0  0  0  0  0  0  0  0  0
  1  2  1  0
  2  3  2  0
  3  4  1  0
  4  5  2  0
  5  6  1  0
  6  7  2  0
  7  8  1  0
  8  9  2  0
  9 10  1  0
  9 11  1  0
 11 12  2  0
  5 13  1  0
 13 14  2  0
 14  2  1  0
 12  6  1  0
  1 15  1  0
  1 16  1  0
  1 17  1  0
  3 18  1  0
  4 19  1  0
  7 20  1  0
  8 21  1  0
 10 22  1  0
 10 23  1  0
 10 24  1  0
 11 25  1  0
 14 26  1  0
M  END
$$$$

     RDKit          3D

 26 27  0  0  0  0  0  0  0  0999 V2000
    2.7859   -3.4264   -2.3205 C   0  0  0  0  0  0  0  0  0  0  0  0
    1.9912   -2.3654   -1.6424 C   0  0  0  0  0  0  0  0  0  0  0  0
    2.4330   -1.0450   -1.5262 C   0  0  0  0  0  0  0  0  0  0  0  0
    1.6580   -0.1110   -0.8757 C   0  0  0  0  0  0  0  0  0  0  0  0
    0.4349   -0.4911   -0.3459 C   0  0  0  0  0  0  0  0  0  0  0  0
   -0.4300    0.4885    0.3564 C   0  0  0  0  0  0  0  0  0  0  0  0
   -1.6937    0.1349    0.8078 C   0  0  0  0  0  0  0  0  0  0  0  0
   -2.4688    1.0722    1.4517 C   0  0  0  0  0  0  0  0  0  0  0  0
   -1.9780    2.3667    1.6543 C   0  0  0  0  0  0  0  0  0  0  0  0
   -2.7758    3.4221    2.3349 C   0  0  0  0  0  0  0  0  0  0  0  0
   -0.6964    2.6144    1.1627 C   0  0  0  0  0  0  0  0  0  0  0  0
    0.0610    1.7204    0.5328 N   0  0  0  0  0  0  0  0  0  0  0  0
   -0.0125   -1.7489   -0.4454 N   0  0  0  0  0  0  0  0  0  0  0  0
    0.7457   -2.6417   -1.0745 C   0  0  0  0  0  0  0  0  0  0  0  0
    2.1790   -3.9618   -3.0437 H   0  0  0  0  0  0  0  0  0  0  0  0
    3.1493   -4.1567   -1.6028 H   0  0  0  0  0  0  0  0  0  0  0  0
    3.6487   -3.0122   -2.8370 H   0  0  0  0  0  0  0  0  0  0  0  0
    3.3843   -0.7622   -1.9530 H   0  0  0  0  0  0  0  0  0  0  0  0
    1.9875    0.9160   -0.7772 H   0  0  0  0  0  0  0  0  0  0  0  0
   -2.0521   -0.8727    0.6480 H   0  0  0  0  0  0  0  0  0  0  0  0
   -3.4611    0.8221    1.8050 H   0  0  0  0  0  0  0  0  0  0  0  0
   -2.1480    4.2485    2.6596 H   0  0  0  0  0  0  0  0  0  0  0  0
   -3.5342    3.8181    1.6695 H   0  0  0  0  0  0  0  0  0  0  0  0
   -3.2955    3.0221    3.2008 H   0  0  0  0  0  0  0  0  0  0  0  0
   -0.2529    3.5964    1.2907 H   0  0  0  0  0  0  0  0  0  0  0  0
    0.3404   -3.6473   -1.1297 H   0  0  0  0  0  0  0  0  0  0  0  0
  1  2  1  0
  2  3  2  0
  3  4  1  0
  4  5  2  0
  5  6  1  0
  6  7  2  0
  7  8  1  0
  8  9  2  0
  9 10  1  0
  9 11  1  0
 11 12  2  0
  5 13  1  0
 13 14  2  0
 14  2  1  0
 12  6  1  0
  1 15  1  0
  1 16  1  0
  1 17  1  0
  3 18  1  0
  4 19  1  0
  7 20  1  0
  8 21  1  0
 10 22  1  0
 10 23  1  0
 10 24  1  0
 11 25  1  0
 14 26  1  0
M  END
$$$$

     RDKit          3D

 26 27  0  0  0  0  0  0  0  0999 V2000
   -4.1516    0.3821    2.7422 C   0  0  0  0  0  0  0  0  0  0  0  0
   -2.9309    0.2232    1.9028 C   0  0  0  0  0  0  0  0  0  0  0  0
   -2.7737   -0.8261    0.9920 C   0  0  0  0  0  0  0  0  0  0  0  0
   -1.6268   -0.9166    0.2348 C   0  0  0  0  0  0  0  0  0  0  0  0
   -0.6338    0.0387    0.3827 C   0  0  0  0  0  0  0  0  0  0  0  0
    0.6194   -0.0330   -0.4085 C   0  0  0  0  0  0  0  0  0  0  0  0
    1.5808    0.9602   -0.3080 C   0  0  0  0  0  0  0  0  0  0  0  0
    2.7369    0.8607   -1.0466 C   0  0  0  0  0  0  0  0  0  0  0  0
    2.9427   -0.2401   -1.8834 C   0  0  0  0  0  0  0  0  0  0  0  0
    4.1748   -0.3976   -2.7043 C   0  0  0  0  0  0  0  0  0  0  0  0
    1.9101   -1.1789   -1.9150 C   0  0  0  0  0  0  0  0  0  0  0  0
    0.7837   -1.0907   -1.2132 N   0  0  0  0  0  0  0  0  0  0  0  0
   -0.7617    1.0581    1.2427 N   0  0  0  0  0  0  0  0  0  0  0  0
   -1.8733    1.1316    1.9696 C   0  0  0  0  0  0  0  0  0  0  0  0
   -4.8748    1.0239    2.2535 H   0  0  0  0  0  0  0  0  0  0  0  0
   -3.9122    0.8299    3.7045 H   0  0  0  0  0  0  0  0  0  0  0  0
   -4.6356   -0.5748    2.9174 H   0  0  0  0  0  0  0  0  0  0  0  0
   -3.5571   -1.5645    0.8904 H   0  0  0  0  0  0  0  0  0  0  0  0
   -1.4862   -1.7229   -0.4733 H   0  0  0  0  0  0  0  0  0  0  0  0
    1.4091    1.7981    0.3513 H   0  0  0  0  0  0  0  0  0  0  0  0
    3.4951    1.6295   -0.9828 H   0  0  0  0  0  0  0  0  0  0  0  0
    5.0101    0.1406   -2.2626 H   0  0  0  0  0  0  0  0  0  0  0  0
    4.4532   -1.4451   -2.8027 H   0  0  0  0  0  0  0  0  0  0  0  0
    4.0280    0.0035   -3.6976 H   0  0  0  0  0  0  0  0  0  0  0  0
    2.0061   -2.0599   -2.5430 H   0  0  0  0  0  0  0  0  0  0  0  0
   -1.9323    1.9699    2.6572 H   0  0  0  0  0  0  0  0  0  0  0  0
  1  2  1  0
  2  3  2  0
  3  4  1  0
  4  5  2  0
  5  6  1  0
  6  7  2  0
  7  8  1  0
  8  9  2  0
  9 10  1  0
  9 11  1  0
 11 12  2  0
  5 13  1  0
 13 14  2  0
 14  2  1  0
 12  6  1  0
  1 15  1  0
  1 16  1  0
  1 17  1  0
  3 18  1  0
  4 19  1  0
  7 20  1  0
  8 21  1  0
 10 22  1  0
 10 23  1  0
 10 24  1  0
 11 25  1  0
 14 26  1  0
M  END
$$$$

     RDKit          3D

 26 27  0  0  0  0  0  0  0  0999 V2000
   -0.5947   -4.8984   -0.7251 C   0  0  0  0  0  0  0  0  0  0  0  0
   -0.4329   -3.4284   -0.5609 C   0  0  0  0  0  0  0  0  0  0  0  0
   -1.0471   -2.5023   -1.4089 C   0  0  0  0  0  0  0  0  0  0  0  0
   -0.8789   -1.1523   -1.1971 C   0  0  0  0  0  0  0  0  0  0  0  0
   -0.0996   -0.7224   -0.1340 C   0  0  0  0  0  0  0  0  0  0  0  0
    0.1071    0.7232    0.1288 C   0  0  0  0  0  0  0  0  0  0  0  0
    0.9494    1.1502    1.1438 C   0  0  0  0  0  0  0  0  0  0  0  0
    1.1184    2.5006    1.3597 C   0  0  0  0  0  0  0  0  0  0  0  0
    0.4419    3.4273    0.5620 C   0  0  0  0  0  0  0  0  0  0  0  0
    0.5543    4.8994    0.7541 C   0  0  0  0  0  0  0  0  0  0  0  0
   -0.3759    2.8907   -0.4329 C   0  0  0  0  0  0  0  0  0  0  0  0
   -0.5448    1.5906   -0.6547 N   0  0  0  0  0  0  0  0  0  0  0  0
    0.4972   -1.5891    0.6930 N   0  0  0  0  0  0  0  0  0  0  0  0
    0.3320   -2.8891    0.4742 C   0  0  0  0  0  0  0  0  0  0  0  0
    0.3390   -5.4209   -0.5271 H   0  0  0  0  0  0  0  0  0  0  0  0
   -0.9203   -5.1497   -1.7320 H   0  0  0  0  0  0  0  0  0  0  0  0
   -1.3377   -5.2805   -0.0354 H   0  0  0  0  0  0  0  0  0  0  0  0
   -1.6520   -2.8572   -2.2325 H   0  0  0  0  0  0  0  0  0  0  0  0
   -1.3392   -0.4228   -1.8504 H   0  0  0  0  0  0  0  0  0  0  0  0
    1.4646    0.4166    1.7498 H   0  0  0  0  0  0  0  0  0  0  0  0
    1.7747    2.8504    2.1439 H   0  0  0  0  0  0  0  0  0  0  0  0
    1.3579    5.1536    1.4401 H   0  0  0  0  0  0  0  0  0  0  0  0
   -0.3677    5.3026    1.1595 H   0  0  0  0  0  0  0  0  0  0  0  0
    0.7391    5.4048   -0.1914 H   0  0  0  0  0  0  0  0  0  0  0  0
   -0.9262    3.5553   -1.0925 H   0  0  0  0  0  0  0  0  0  0  0  0
    0.8413   -3.5520    1.1661 H   0  0  0  0  0  0  0  0  0  0  0  0
  1  2  1  0
  2  3  2  0
  3  4  1  0
  4  5  2  0
  5  6  1  0
  6  7  2  0
  7  8  1  0
  8  9  2  0
  9 10  1  0
  9 11  1  0
 11 12  2  0
  5 13  1  0
 13 14  2  0
 14  2  1  0
 12  6  1  0
  1 15  1  0
  1 16  1  0
  1 17  1  0
  3 18  1  0
  4 19  1  0
  7 20  1  0
  8 21  1  0
 10 22  1  0
 10 23  1  0
 10 24  1  0
 11 25  1  0
 14 26  1  0
M  END
$$$$

     RDKit          3D

 26 27  0  0  0  0  0  0  0  0999 V2000
    0.8323    2.0397    4.4766 C   0  0  0  0  0  0  0  0  0  0  0  0
    0.5528    1.3890    3.1658 C   0  0  0  0  0  0  0  0  0  0  0  0
   -0.5138    0.5061    2.9729 C   0  0  0  0  0  0  0  0  0  0  0  0
   -0.7359   -0.0479    1.7306 C   0  0  0  0  0  0  0  0  0  0  0  0
    0.1066    0.2781    0.6799 C   0  0  0  0  0  0  0  0  0  0  0  0
   -0.1000   -0.2988   -0.6711 C   0  0  0  0  0  0  0  0  0  0  0  0
    0.7435    0.0273   -1.7228 C   0  0  0  0  0  0  0  0  0  0  0  0
    0.5228   -0.5234   -2.9643 C   0  0  0  0  0  0  0  0  0  0  0  0
   -0.5466   -1.4029   -3.1611 C   0  0  0  0  0  0  0  0  0  0  0  0
   -0.8504   -2.0081   -4.4878 C   0  0  0  0  0  0  0  0  0  0  0  0
   -1.3274   -1.6693   -2.0353 C   0  0  0  0  0  0  0  0  0  0  0  0
   -1.1260   -1.1417   -0.8295 N   0  0  0  0  0  0  0  0  0  0  0  0
    1.1369    1.1204    0.8374 N   0  0  0  0  0  0  0  0  0  0  0  0
    1.3409    1.6456    2.0420 C   0  0  0  0  0  0  0  0  0  0  0  0
    0.4595    3.0563    4.4861 H   0  0  0  0  0  0  0  0  0  0  0  0
    0.3483    1.5077    5.2915 H   0  0  0  0  0  0  0  0  0  0  0  0
    1.9012    2.0788    4.6761 H   0  0  0  0  0  0  0  0  0  0  0  0
   -1.1618    0.2628    3.8031 H   0  0  0  0  0  0  0  0  0  0  0  0
   -1.5608   -0.7289    1.5621 H   0  0  0  0  0  0  0  0  0  0  0  0
    1.5653    0.7091   -1.5517 H   0  0  0  0  0  0  0  0  0  0  0  0
    1.1737   -0.2839   -3.7952 H   0  0  0  0  0  0  0  0  0  0  0  0
    0.0620   -2.2192   -5.0390 H   0  0  0  0  0  0  0  0  0  0  0  0
   -1.4115   -2.9327   -4.3823 H   0  0  0  0  0  0  0  0  0  0  0  0
   -1.4370   -1.3283   -5.0945 H   0  0  0  0  0  0  0  0  0  0  0  0
   -2.1652   -2.3535   -2.1134 H   0  0  0  0  0  0  0  0  0  0  0  0
    2.1903    2.3178    2.1239 H   0  0  0  0  0  0  0  0  0  0  0  0
  1  2  1  0
  2  3  2  0
  3  4  1  0
  4  5  2  0
  5  6  1  0
  6  7  2  0
  7  8  1  0
  8  9  2  0
  9 10  1  0
  9 11  1  0
 11 12  2  0
  5 13  1  0
 13 14  2  0
 14  2  1  0
 12  6  1  0
  1 15  1  0
  1 16  1  0
  1 17  1  0
  3 18  1  0
  4 19  1  0
  7 20  1  0
  8 21  1  0
 10 22  1  0
 10 23  1  0
 10 24  1  0
 11 25  1  0
 14 26  1  0
M  END
$$$$
