
     RDKit          3D

 28 30  0  0  0  0  0  0  0  0999 V2000
    2.0535   -3.3192   -0.1429 C   0  0  0  0  0  0  0  0  0  0  0  0
    1.3382   -2.3181   -0.9890 C   0  0  0  0  0  0  0  0  0  0  0  0
    1.2579   -2.4484   -2.3463 C   0  0  0  0  0  0  0  0  0  0  0  0
    0.5836   -1.4815   -3.1057 C   0  0  0  0  0  0  0  0  0  0  0  0
   -0.0097   -0.4063   -2.5753 N   0  0  0  0  0  0  0  0  0  0  0  0
    0.0426   -0.2526   -1.2493 C   0  0  0  0  0  0  0  0  0  0  0  0
    0.7117   -1.1749   -0.3909 C   0  0  0  0  0  0  0  0  0  0  0  0
    0.7387   -0.9406    1.0045 C   0  0  0  0  0  0  0  0  0  0  0  0
    0.1253    0.1398    1.5517 C   0  0  0  0  0  0  0  0  0  0  0  0
   -0.5716    1.0786    0.7512 C   0  0  0  0  0  0  0  0  0  0  0  0
   -1.2393    2.2168    1.2972 C   0  0  0  0  0  0  0  0  0  0  0  0
   -1.2452    2.4618    2.7709 C   0  0  0  0  0  0  0  0  0  0  0  0
   -1.8822    3.0569    0.4233 C   0  0  0  0  0  0  0  0  0  0  0  0
   -1.8761    2.7881   -0.9494 C   0  0  0  0  0  0  0  0  0  0  0  0
   -1.2560    1.7314   -1.4896 N   0  0  0  0  0  0  0  0  0  0  0  0
   -0.6227    0.8940   -0.6670 C   0  0  0  0  0  0  0  0  0  0  0  0
    2.4615   -4.1255   -0.7700 H   0  0  0  0  0  0  0  0  0  0  0  0
    2.8808   -2.8644    0.3999 H   0  0  0  0  0  0  0  0  0  0  0  0
    1.3894   -3.7772    0.5879 H   0  0  0  0  0  0  0  0  0  0  0  0
    1.7112   -3.2980   -2.8386 H   0  0  0  0  0  0  0  0  0  0  0  0
    0.5201   -1.5852   -4.1765 H   0  0  0  0  0  0  0  0  0  0  0  0
    1.2605   -1.6407    1.6434 H   0  0  0  0  0  0  0  0  0  0  0  0
    0.1668    0.2843    2.6217 H   0  0  0  0  0  0  0  0  0  0  0  0
   -0.2369    2.5484    3.1707 H   0  0  0  0  0  0  0  0  0  0  0  0
   -1.7727    3.3972    2.9965 H   0  0  0  0  0  0  0  0  0  0  0  0
   -1.7441    1.6549    3.3078 H   0  0  0  0  0  0  0  0  0  0  0  0
   -2.3976    3.9322    0.7962 H   0  0  0  0  0  0  0  0  0  0  0  0
   -2.3879    3.4482   -1.6324 H   0  0  0  0  0  0  0  0  0  0  0  0
  1  2  1  0
  2  3  2  0
  3  4  1  0
  4  5  2  0
  5  6  1  0
  6  7  2  0
  7  8  1  0
  8  9  2  0
  9 10  1  0
 10 11  2  0
 11 12  1  0
 11 13  1  0
 13 14  2  0
 14 15  1  0
 15 16  2  0
  7  2  1  0
 16 10  1  0
 16  6  1  0
  1 17  1  0
  1 18  1  0
  1 19  1  0
  3 20  1  0
  4 21  1  0
  8 22  1  0
  9 23  1  0
 12 24  1  0
 12 25  1  0
 12 26  1  0
 13 27  1  0
 14 28  1  0
M  END
$$$$

     RDKit          3D

 28 30  0  0  0  0  0  0  0  0999 V2000
    1.3199    3.6525   -0.4459 C   0  0  0  0  0  0  0  0  0  0  0  0
    0.4501    2.6096   -1.0695 C   0  0  0  0  0  0  0  0  0  0  0  0
   -0.2220    2.8318   -2.2379 C   0  0  0  0  0  0  0  0  0  0  0  0
   -1.0382    1.8304   -2.7844 C   0  0  0  0  0  0  0  0  0  0  0  0
   -1.2128    0.6320   -2.2195 N   0  0  0  0  0  0  0  0  0  0  0  0
   -0.5754    0.3815   -1.0737 C   0  0  0  0  0  0  0  0  0  0  0  0
    0.2931    1.3269   -0.4479 C   0  0  0  0  0  0  0  0  0  0  0  0
    0.9627    0.9737    0.7496 C   0  0  0  0  0  0  0  0  0  0  0  0
    0.7964   -0.2459    1.3213 C   0  0  0  0  0  0  0  0  0  0  0  0
   -0.0541   -1.2214    0.7459 C   0  0  0  0  0  0  0  0  0  0  0  0
   -0.2327   -2.5197    1.3158 C   0  0  0  0  0  0  0  0  0  0  0  0
    0.5068   -2.9234    2.5482 C   0  0  0  0  0  0  0  0  0  0  0  0
   -1.1023   -3.3719    0.6854 C   0  0  0  0  0  0  0  0  0  0  0  0
   -1.7740   -2.9668   -0.4725 C   0  0  0  0  0  0  0  0  0  0  0  0
   -1.6156   -1.7604   -1.0361 N   0  0  0  0  0  0  0  0  0  0  0  0
   -0.7675   -0.9115   -0.4554 C   0  0  0  0  0  0  0  0  0  0  0  0
    2.3563    3.3280   -0.3845 H   0  0  0  0  0  0  0  0  0  0  0  0
    1.2925    4.5736   -1.0435 H   0  0  0  0  0  0  0  0  0  0  0  0
    0.9925    3.8976    0.5628 H   0  0  0  0  0  0  0  0  0  0  0  0
   -0.1270    3.7798   -2.7489 H   0  0  0  0  0  0  0  0  0  0  0  0
   -1.5613    2.0064   -3.7100 H   0  0  0  0  0  0  0  0  0  0  0  0
    1.6239    1.6951    1.2117 H   0  0  0  0  0  0  0  0  0  0  0  0
    1.3190   -0.4800    2.2417 H   0  0  0  0  0  0  0  0  0  0  0  0
    1.5875   -2.8528    2.4095 H   0  0  0  0  0  0  0  0  0  0  0  0
    0.2464   -2.2976    3.4010 H   0  0  0  0  0  0  0  0  0  0  0  0
    0.2672   -3.9629    2.8107 H   0  0  0  0  0  0  0  0  0  0  0  0
   -1.2692   -4.3645    1.0848 H   0  0  0  0  0  0  0  0  0  0  0  0
   -2.4622   -3.6398   -0.9587 H   0  0  0  0  0  0  0  0  0  0  0  0
  1  2  1  0
  2  3  2  0
  3  4  1  0
  4  5  2  0
  5  6  1  0
  6  7  2  0
  7  8  1  0
  8  9  2  0
  9 10  1  0
 10 11  2  0
 11 12  1  0
 11 13  1  0
 13 14  2  0
 14 15  1  0
 15 16  2  0
  7  2  1  0
 16 10  1  0
 16  6  1  0
  1 17  1  0
  1 18  1  0
  1 19  1  0
  3 20  1  0
  4 21  1  0
  8 22  1  0
  9 23  1  0
 12 24  1  0
 12 25  1  0
 12 26  1  0
 13 27  1  0
 14 28  1  0
M  END
$$$$

     RDKit          3D

 28 30  0  0  0  0  0  0  0  0999 V2000
   -1.5578    3.3430    1.2825 C   0  0  0  0  0  0  0  0  0  0  0  0
   -0.6625    2.2132    1.6735 C   0  0  0  0  0  0  0  0  0  0  0  0
   -0.0865    2.1427    2.9097 C   0  0  0  0  0  0  0  0  0  0  0  0
    0.7474    1.0647    3.2381 C   0  0  0  0  0  0  0  0  0  0  0  0
    1.0312    0.0646    2.3947 N   0  0  0  0  0  0  0  0  0  0  0  0
    0.4729    0.0983    1.1816 C   0  0  0  0  0  0  0  0  0  0  0  0
   -0.3881    1.1509    0.7497 C   0  0  0  0  0  0  0  0  0  0  0  0
   -0.9434    1.1169   -0.5528 C   0  0  0  0  0  0  0  0  0  0  0  0
   -0.6668    0.1020   -1.4115 C   0  0  0  0  0  0  0  0  0  0  0  0
    0.1749   -0.9742   -1.0348 C   0  0  0  0  0  0  0  0  0  0  0  0
    0.4754   -2.0616   -1.9117 C   0  0  0  0  0  0  0  0  0  0  0  0
   -0.0823   -2.1006   -3.2967 C   0  0  0  0  0  0  0  0  0  0  0  0
    1.2827   -3.0606   -1.4292 C   0  0  0  0  0  0  0  0  0  0  0  0
    1.7944   -2.9898   -0.1289 C   0  0  0  0  0  0  0  0  0  0  0  0
    1.5408   -1.9752    0.7110 N   0  0  0  0  0  0  0  0  0  0  0  0
    0.7509   -0.9941    0.2753 C   0  0  0  0  0  0  0  0  0  0  0  0
   -2.5535    2.9912    1.0230 H   0  0  0  0  0  0  0  0  0  0  0  0
   -1.6611    4.0549    2.1131 H   0  0  0  0  0  0  0  0  0  0  0  0
   -1.1649    3.8884    0.4253 H   0  0  0  0  0  0  0  0  0  0  0  0
   -0.2708    2.9191    3.6407 H   0  0  0  0  0  0  0  0  0  0  0  0
    1.2002    1.0138    4.2144 H   0  0  0  0  0  0  0  0  0  0  0  0
   -1.5979    1.9205   -0.8630 H   0  0  0  0  0  0  0  0  0  0  0  0
   -1.1046    0.1099   -2.4012 H   0  0  0  0  0  0  0  0  0  0  0  0
    0.3001   -2.9755   -3.8392 H   0  0  0  0  0  0  0  0  0  0  0  0
   -1.1711   -2.1640   -3.2878 H   0  0  0  0  0  0  0  0  0  0  0  0
    0.1873   -1.2115   -3.8642 H   0  0  0  0  0  0  0  0  0  0  0  0
    1.5250   -3.9091   -2.0572 H   0  0  0  0  0  0  0  0  0  0  0  0
    2.4279   -3.7778    0.2454 H   0  0  0  0  0  0  0  0  0  0  0  0
  1  2  1  0
  2  3  2  0
  3  4  1  0
  4  5  2  0
  5  6  1  0
  6  7  2  0
  7  8  1  0
  8  9  2  0
  9 10  1  0
 10 11  2  0
 11 12  1  0
 11 13  1  0
 13 14  2  0
 14 15  1  0
 15 16  2  0
  7  2  1  0
 16 10  1  0
 16  6  1  0
  1 17  1  0
  1 18  1  0
  1 19  1  0
  3 20  1  0
  4 21  1  0
  8 22  1  0
  9 23  1  0
 12 24  1  0
 12 25  1  0
 12 26  1  0
 13 27  1  0
 14 28  1  0
M  END
$$$$

     RDKit          3D

 28 30  0  0  0  0  0  0  0  0999 V2000
   -1.5620   -2.4974   -2.5732 C   0  0  0  0  0  0  0  0  0  0  0  0
   -0.8207   -1.2058   -2.4541 C   0  0  0  0  0  0  0  0  0  0  0  0
   -0.4560   -0.4818   -3.5529 C   0  0  0  0  0  0  0  0  0  0  0  0
    0.2465    0.7219   -3.4014 C   0  0  0  0  0  0  0  0  0  0  0  0
    0.5828    1.2403   -2.2157 N   0  0  0  0  0  0  0  0  0  0  0  0
    0.2453    0.5569   -1.1193 C   0  0  0  0  0  0  0  0  0  0  0  0
   -0.4609   -0.6835   -1.1661 C   0  0  0  0  0  0  0  0  0  0  0  0
   -0.7797   -1.3510    0.0426 C   0  0  0  0  0  0  0  0  0  0  0  0
   -0.4243   -0.8413    1.2488 C   0  0  0  0  0  0  0  0  0  0  0  0
    0.2813    0.3826    1.3544 C   0  0  0  0  0  0  0  0  0  0  0  0
    0.6816    0.9369    2.6073 C   0  0  0  0  0  0  0  0  0  0  0  0
    0.3891    0.2177    3.8834 C   0  0  0  0  0  0  0  0  0  0  0  0
    1.3379    2.1413    2.5870 C   0  0  0  0  0  0  0  0  0  0  0  0
    1.6033    2.7810    1.3710 C   0  0  0  0  0  0  0  0  0  0  0  0
    1.2551    2.2761    0.1816 N   0  0  0  0  0  0  0  0  0  0  0  0
    0.6133    1.1088    0.1668 C   0  0  0  0  0  0  0  0  0  0  0  0
   -0.9928   -3.3260   -2.1534 H   0  0  0  0  0  0  0  0  0  0  0  0
   -1.7613   -2.7307   -3.6279 H   0  0  0  0  0  0  0  0  0  0  0  0
   -2.5203   -2.4580   -2.0560 H   0  0  0  0  0  0  0  0  0  0  0  0
   -0.7055   -0.8320   -4.5452 H   0  0  0  0  0  0  0  0  0  0  0  0
    0.5399    1.2838   -4.2724 H   0  0  0  0  0  0  0  0  0  0  0  0
   -1.3196   -2.2899    0.0011 H   0  0  0  0  0  0  0  0  0  0  0  0
   -0.6877   -1.3795    2.1494 H   0  0  0  0  0  0  0  0  0  0  0  0
    0.8189    0.7637    4.7324 H   0  0  0  0  0  0  0  0  0  0  0  0
   -0.6827    0.1200    4.0542 H   0  0  0  0  0  0  0  0  0  0  0  0
    0.8145   -0.7865    3.8827 H   0  0  0  0  0  0  0  0  0  0  0  0
    1.6503    2.6012    3.5152 H   0  0  0  0  0  0  0  0  0  0  0  0
    2.1139    3.7312    1.3595 H   0  0  0  0  0  0  0  0  0  0  0  0
  1  2  1  0
  2  3  2  0
  3  4  1  0
  4  5  2  0
  5  6  1  0
  6  7  2  0
  7  8  1  0
  8  9  2  0
  9 10  1  0
 10 11  2  0
 11 12  1  0
 11 13  1  0
 13 14  2  0
 14 15  1  0
 15 16  2  0
  7  2  1  0
 16 10  1  0
 16  6  1  0
  1 17  1  0
  1 18  1  0
  1 19  1  0
  3 20  1  0
  4 21  1  0
  8 22  1  0
  9 23  1  0
 12 24  1  0
 12 25  1  0
 12 26  1  0
 13 27  1  0
 14 28  1  0
M  END
$$$$

     RDKit          3D

 28 30  0  0  0  0  0  0  0  0999 V2000
    1.6666   -2.7629   -2.1830 C   0  0  0  0  0  0  0  0  0  0  0  0
    0.3688   -2.3546   -1.5698 C   0  0  0  0  0  0  0  0  0  0  0  0
   -0.7679   -3.0997   -1.7039 C   0  0  0  0  0  0  0  0  0  0  0  0
   -1.9623   -2.6796   -1.0994 C   0  0  0  0  0  0  0  0  0  0  0  0
   -2.0696   -1.5610   -0.3742 N   0  0  0  0  0  0  0  0  0  0  0  0
   -0.9747   -0.8069   -0.2295 C   0  0  0  0  0  0  0  0  0  0  0  0
    0.2848   -1.1457   -0.8041 C   0  0  0  0  0  0  0  0  0  0  0  0
    1.4050   -0.2998   -0.6022 C   0  0  0  0  0  0  0  0  0  0  0  0
    1.3103    0.8362    0.1333 C   0  0  0  0  0  0  0  0  0  0  0  0
    0.0878    1.2263    0.7312 C   0  0  0  0  0  0  0  0  0  0  0  0
   -0.0422    2.4186    1.5072 C   0  0  0  0  0  0  0  0  0  0  0  0
    1.1272    3.3254    1.7260 C   0  0  0  0  0  0  0  0  0  0  0  0
   -1.2757    2.6905    2.0404 C   0  0  0  0  0  0  0  0  0  0  0  0
   -2.3480    1.8182    1.8214 C   0  0  0  0  0  0  0  0  0  0  0  0
   -2.2562    0.6955    1.0978 N   0  0  0  0  0  0  0  0  0  0  0  0
   -1.0735    0.4027    0.5597 C   0  0  0  0  0  0  0  0  0  0  0  0
    2.0320   -2.0088   -2.8794 H   0  0  0  0  0  0  0  0  0  0  0  0
    1.5528   -3.7070   -2.7346 H   0  0  0  0  0  0  0  0  0  0  0  0
    2.4376   -2.9122   -1.4271 H   0  0  0  0  0  0  0  0  0  0  0  0
   -0.7485   -4.0164   -2.2764 H   0  0  0  0  0  0  0  0  0  0  0  0
   -2.8553   -3.2732   -1.2017 H   0  0  0  0  0  0  0  0  0  0  0  0
    2.3544   -0.5712   -1.0442 H   0  0  0  0  0  0  0  0  0  0  0  0
    2.1897    1.4556    0.2726 H   0  0  0  0  0  0  0  0  0  0  0  0
    1.5246    3.7018    0.7852 H   0  0  0  0  0  0  0  0  0  0  0  0
    0.8353    4.1928    2.3314 H   0  0  0  0  0  0  0  0  0  0  0  0
    1.9376    2.8137    2.2443 H   0  0  0  0  0  0  0  0  0  0  0  0
   -1.4246    3.5857    2.6313 H   0  0  0  0  0  0  0  0  0  0  0  0
   -3.3161    2.0361    2.2479 H   0  0  0  0  0  0  0  0  0  0  0  0
  1  2  1  0
  2  3  2  0
  3  4  1  0
  4  5  2  0
  5  6  1  0
  6  7  2  0
  7  8  1  0
  8  9  2  0
  9 10  1  0
 10 11  2  0
 11 12  1  0
 11 13  1  0
 13 14  2  0
 14 15  1  0
 15 16  2  0
  7  2  1  0
 16 10  1  0
 16  6  1  0
  1 17  1  0
  1 18  1  0
  1 19  1  0
  3 20  1  0
  4 21  1  0
  8 22  1  0
  9 23  1  0
 12 24  1  0
 12 25  1  0
 12 26  1  0
 13 27  1  0
 14 28  1  0
M  END
$$$$

     RDKit          3D

 28 30  0  0  0  0  0  0  0  0999 V2000
   -2.7973    2.6473    0.6224 C   0  0  0  0  0  0  0  0  0  0  0  0
   -1.6846    1.9085    1.2916 C   0  0  0  0  0  0  0  0  0  0  0  0
   -1.3647    2.1098    2.6040 C   0  0  0  0  0  0  0  0  0  0  0  0
   -0.2880    1.4190    3.1796 C   0  0  0  0  0  0  0  0  0  0  0  0
    0.4693    0.5421    2.5139 N   0  0  0  0  0  0  0  0  0  0  0  0
    0.1737    0.3102    1.2318 C   0  0  0  0  0  0  0  0  0  0  0  0
   -0.9027    0.9577    0.5562 C   0  0  0  0  0  0  0  0  0  0  0  0
   -1.1687    0.6435   -0.7995 C   0  0  0  0  0  0  0  0  0  0  0  0
   -0.4197   -0.2588   -1.4797 C   0  0  0  0  0  0  0  0  0  0  0  0
    0.6769   -0.9126   -0.8683 C   0  0  0  0  0  0  0  0  0  0  0  0
    1.4979   -1.8494   -1.5692 C   0  0  0  0  0  0  0  0  0  0  0  0
    1.2303   -2.1802   -3.0014 C   0  0  0  0  0  0  0  0  0  0  0  0
    2.5281   -2.4297   -0.8728 C   0  0  0  0  0  0  0  0  0  0  0  0
    2.7456   -2.0994    0.4695 C   0  0  0  0  0  0  0  0  0  0  0  0
    1.9942   -1.2215    1.1486 N   0  0  0  0  0  0  0  0  0  0  0  0
    0.9850   -0.6408    0.5034 C   0  0  0  0  0  0  0  0  0  0  0  0
   -2.4414    3.2092   -0.2392 H   0  0  0  0  0  0  0  0  0  0  0  0
   -3.2629    3.3600    1.3184 H   0  0  0  0  0  0  0  0  0  0  0  0
   -3.5763    1.9723    0.2743 H   0  0  0  0  0  0  0  0  0  0  0  0
   -1.9375    2.8040    3.2025 H   0  0  0  0  0  0  0  0  0  0  0  0
   -0.0325    1.5852    4.2133 H   0  0  0  0  0  0  0  0  0  0  0  0
   -1.9923    1.1369   -1.2989 H   0  0  0  0  0  0  0  0  0  0  0  0
   -0.6595   -0.4837   -2.5120 H   0  0  0  0  0  0  0  0  0  0  0  0
    1.9668   -2.9115   -3.3646 H   0  0  0  0  0  0  0  0  0  0  0  0
    1.2955   -1.3001   -3.6406 H   0  0  0  0  0  0  0  0  0  0  0  0
    0.2355   -2.6100   -3.1366 H   0  0  0  0  0  0  0  0  0  0  0  0
    3.1762   -3.1465   -1.3622 H   0  0  0  0  0  0  0  0  0  0  0  0
    3.5529   -2.5616    1.0155 H   0  0  0  0  0  0  0  0  0  0  0  0
  1  2  1  0
  2  3  2  0
  3  4  1  0
  4  5  2  0
  5  6  1  0
  6  7  2  0
  7  8  1  0
  8  9  2  0
  9 10  1  0
 10 11  2  0
 11 12  1  0
 11 13  1  0
 13 14  2  0
 14 15  1  0
 15 16  2  0
  7  2  1  0
 16 10  1  0
 16  6  1  0
  1 17  1  0
  1 18  1  0
  1 19  1  0
  3 20  1  0
  4 21  1  0
  8 22  1  0
  9 23  1  0
 12 24  1  0
 12 25  1  0
 12 26  1  0
 13 27  1  0
 14 28  1  0
M  END
$$$$

     RDKit          3D

 28 30  0  0  0  0  0  0  0  0999 V2000
   -3.6070   -1.0406    1.0922 C   0  0  0  0  0  0  0  0  0  0  0  0
   -2.4916   -1.3848    0.1610 C   0  0  0  0  0  0  0  0  0  0  0  0
   -2.5799   -2.4348   -0.7083 C   0  0  0  0  0  0  0  0  0  0  0  0
   -1.5108   -2.7302   -1.5633 C   0  0  0  0  0  0  0  0  0  0  0  0
   -0.3638   -2.0404   -1.5815 N   0  0  0  0  0  0  0  0  0  0  0  0
   -0.2375   -1.0160   -0.7343 C   0  0  0  0  0  0  0  0  0  0  0  0
   -1.2781   -0.6199    0.1590 C   0  0  0  0  0  0  0  0  0  0  0  0
   -1.0855    0.5034    1.0019 C   0  0  0  0  0  0  0  0  0  0  0  0
    0.0662    1.2202    0.9782 C   0  0  0  0  0  0  0  0  0  0  0  0
    1.1399    0.8613    0.1254 C   0  0  0  0  0  0  0  0  0  0  0  0
    2.3678    1.5905    0.0780 C   0  0  0  0  0  0  0  0  0  0  0  0
    2.5653    2.8029    0.9260 C   0  0  0  0  0  0  0  0  0  0  0  0
    3.3418    1.1410   -0.7758 C   0  0  0  0  0  0  0  0  0  0  0  0
    3.1218    0.0050   -1.5608 C   0  0  0  0  0  0  0  0  0  0  0  0
    1.9801   -0.6925   -1.5427 N   0  0  0  0  0  0  0  0  0  0  0  0
    1.0061   -0.2745   -0.7355 C   0  0  0  0  0  0  0  0  0  0  0  0
   -3.9754   -0.0289    0.9238 H   0  0  0  0  0  0  0  0  0  0  0  0
   -3.2890   -1.1096    2.1309 H   0  0  0  0  0  0  0  0  0  0  0  0
   -4.4485   -1.7295    0.9497 H   0  0  0  0  0  0  0  0  0  0  0  0
   -3.4747   -3.0414   -0.7386 H   0  0  0  0  0  0  0  0  0  0  0  0
   -1.5869   -3.5525   -2.2566 H   0  0  0  0  0  0  0  0  0  0  0  0
   -1.8838    0.7972    1.6725 H   0  0  0  0  0  0  0  0  0  0  0  0
    0.1676    2.0847    1.6241 H   0  0  0  0  0  0  0  0  0  0  0  0
    1.8306    3.5748    0.7023 H   0  0  0  0  0  0  0  0  0  0  0  0
    3.5642    3.2287    0.7570 H   0  0  0  0  0  0  0  0  0  0  0  0
    2.4827    2.5702    1.9854 H   0  0  0  0  0  0  0  0  0  0  0  0
    4.2846    1.6663   -0.8437 H   0  0  0  0  0  0  0  0  0  0  0  0
    3.8938   -0.3503   -2.2264 H   0  0  0  0  0  0  0  0  0  0  0  0
  1  2  1  0
  2  3  2  0
  3  4  1  0
  4  5  2  0
  5  6  1  0
  6  7  2  0
  7  8  1  0
  8  9  2  0
  9 10  1  0
 10 11  2  0
 11 12  1  0
 11 13  1  0
 13 14  2  0
 14 15  1  0
 15 16  2  0
  7  2  1  0
 16 10  1  0
 16  6  1  0
  1 17  1  0
  1 18  1  0
  1 19  1  0
  3 20  1  0
  4 21  1  0
  8 22  1  0
  9 23  1  0
 12 24  1  0
 12 25  1  0
 12 26  1  0
 13 27  1  0
 14 28  1  0
M  END
$$$$

     RDKit          3D

 28 30  0  0  0  0  0  0  0  0999 V2000
   -3.8472    0.6828    0.1924 C   0  0  0  0  0  0  0  0  0  0  0  0
   -2.7776    0.0896   -0.6635 C   0  0  0  0  0  0  0  0  0  0  0  0
   -3.0603   -0.4873   -1.8679 C   0  0  0  0  0  0  0  0  0  0  0  0
   -2.0295   -1.0299   -2.6461 C   0  0  0  0  0  0  0  0  0  0  0  0
   -0.7437   -1.0165   -2.2818 N   0  0  0  0  0  0  0  0  0  0  0  0
   -0.4327   -0.4761   -1.0997 C   0  0  0  0  0  0  0  0  0  0  0  0
   -1.4077    0.1068   -0.2368 C   0  0  0  0  0  0  0  0  0  0  0  0
   -0.9987    0.6728    0.9973 C   0  0  0  0  0  0  0  0  0  0  0  0
    0.3030    0.6724    1.3794 C   0  0  0  0  0  0  0  0  0  0  0  0
    1.3135    0.0985    0.5691 C   0  0  0  0  0  0  0  0  0  0  0  0
    2.6896    0.0670    0.9504 C   0  0  0  0  0  0  0  0  0  0  0  0
    3.1440    0.6906    2.2294 C   0  0  0  0  0  0  0  0  0  0  0  0
    3.5733   -0.5416    0.0971 C   0  0  0  0  0  0  0  0  0  0  0  0
    3.1226   -1.0929   -1.1054 C   0  0  0  0  0  0  0  0  0  0  0  0
    1.8419   -1.0663   -1.4932 N   0  0  0  0  0  0  0  0  0  0  0  0
    0.9556   -0.4883   -0.6857 C   0  0  0  0  0  0  0  0  0  0  0  0
   -3.6653    1.7399    0.3750 H   0  0  0  0  0  0  0  0  0  0  0  0
   -4.8252    0.5903   -0.2932 H   0  0  0  0  0  0  0  0  0  0  0  0
   -3.9037    0.1835    1.1589 H   0  0  0  0  0  0  0  0  0  0  0  0
   -4.0813   -0.5325   -2.2231 H   0  0  0  0  0  0  0  0  0  0  0  0
   -2.2590   -1.4856   -3.5963 H   0  0  0  0  0  0  0  0  0  0  0  0
   -1.7487    1.1124    1.6430 H   0  0  0  0  0  0  0  0  0  0  0  0
    0.5815    1.1210    2.3276 H   0  0  0  0  0  0  0  0  0  0  0  0
    4.2273    0.5615    2.3504 H   0  0  0  0  0  0  0  0  0  0  0  0
    2.6553    0.2378    3.0922 H   0  0  0  0  0  0  0  0  0  0  0  0
    2.9290    1.7586    2.2529 H   0  0  0  0  0  0  0  0  0  0  0  0
    4.6238   -0.5979    0.3547 H   0  0  0  0  0  0  0  0  0  0  0  0
    3.8202   -1.5706   -1.7772 H   0  0  0  0  0  0  0  0  0  0  0  0
  1  2  1  0
  2  3  2  0
  3  4  1  0
  4  5  2  0
  5  6  1  0
  6  7  2  0
  7  8  1  0
  8  9  2  0
  9 10  1  0
 10 11  2  0
 11 12  1  0
 11 13  1  0
 13 14  2  0
 14 15  1  0
 15 16  2  0
  7  2  1  0
 16 10  1  0
 16  6  1  0
  1 17  1  0
  1 18  1  0
  1 19  1  0
  3 20  1  0
  4 21  1  0
  8 22  1  0
  9 23  1  0
 12 24  1  0
 12 25  1  0
 12 26  1  0
 13 27  1  0
 14 28  1  0
M  END
$$$$

     RDKit          3D

 28 30  0  0  0  0  0  0  0  0999 V2000
   -3.7725    0.2347   -0.9984 C   0  0  0  0  0  0  0  0  0  0  0  0
   -2.5337   -0.5810   -1.1785 C   0  0  0  0  0  0  0  0  0  0  0  0
   -2.5181   -1.7086   -1.9496 C   0  0  0  0  0  0  0  0  0  0  0  0
   -1.3322   -2.4422   -2.1003 C   0  0  0  0  0  0  0  0  0  0  0  0
   -0.1726   -2.0976   -1.5294 N   0  0  0  0  0  0  0  0  0  0  0  0
   -0.1548   -1.0054   -0.7633 C   0  0  0  0  0  0  0  0  0  0  0  0
   -1.3074   -0.1932   -0.5431 C   0  0  0  0  0  0  0  0  0  0  0  0
   -1.2087    0.9510    0.2851 C   0  0  0  0  0  0  0  0  0  0  0  0
   -0.0399    1.2910    0.8859 C   0  0  0  0  0  0  0  0  0  0  0  0
    1.1348    0.5169    0.7074 C   0  0  0  0  0  0  0  0  0  0  0  0
    2.3775    0.8411    1.3311 C   0  0  0  0  0  0  0  0  0  0  0  0
    2.4948    2.0334    2.2226 C   0  0  0  0  0  0  0  0  0  0  0  0
    3.4503    0.0242    1.0705 C   0  0  0  0  0  0  0  0  0  0  0  0
    3.3103   -1.0786    0.2214 C   0  0  0  0  0  0  0  0  0  0  0  0
    2.1573   -1.4067   -0.3770 N   0  0  0  0  0  0  0  0  0  0  0  0
    1.0946   -0.6375   -0.1369 C   0  0  0  0  0  0  0  0  0  0  0  0
   -3.6325    1.2597   -1.3386 H   0  0  0  0  0  0  0  0  0  0  0  0
   -4.6023   -0.1968   -1.5759 H   0  0  0  0  0  0  0  0  0  0  0  0
   -4.0782    0.2720    0.0470 H   0  0  0  0  0  0  0  0  0  0  0  0
   -3.4181   -2.0367   -2.4529 H   0  0  0  0  0  0  0  0  0  0  0  0
   -1.3212   -3.3312   -2.7059 H   0  0  0  0  0  0  0  0  0  0  0  0
   -2.0853    1.5671    0.4376 H   0  0  0  0  0  0  0  0  0  0  0  0
   -0.0060    2.1730    1.5148 H   0  0  0  0  0  0  0  0  0  0  0  0
    1.8088    1.9754    3.0672 H   0  0  0  0  0  0  0  0  0  0  0  0
    3.5143    2.1095    2.6236 H   0  0  0  0  0  0  0  0  0  0  0  0
    2.2765    2.9566    1.6868 H   0  0  0  0  0  0  0  0  0  0  0  0
    4.4090    0.2288    1.5292 H   0  0  0  0  0  0  0  0  0  0  0  0
    4.1554   -1.7190    0.0198 H   0  0  0  0  0  0  0  0  0  0  0  0
  1  2  1  0
  2  3  2  0
  3  4  1  0
  4  5  2  0
  5  6  1  0
  6  7  2  0
  7  8  1  0
  8  9  2  0
  9 10  1  0
 10 11  2  0
 11 12  1  0
 11 13  1  0
 13 14  2  0
 14 15  1  0
 15 16  2  0
  7  2  1  0
 16 10  1  0
 16  6  1  0
  1 17  1  0
  1 18  1  0
  1 19  1  0
  3 20  1  0
  4 21  1  0
  8 22  1  0
  9 23  1  0
 12 24  1  0
 12 25  1  0
 12 26  1  0
 13 27  1  0
 14 28  1  0
M  END
$$$$

     RDKit          3D

 28 30  0  0  0  0  0  0  0  0999 V2000
   -3.1715   -0.9150   -2.0827 C   0  0  0  0  0  0  0  0  0  0  0  0
   -2.1078   -1.5004   -1.2121 C   0  0  0  0  0  0  0  0  0  0  0  0
   -2.0612   -2.8317   -0.9128 C   0  0  0  0  0  0  0  0  0  0  0  0
   -1.0462   -3.3332   -0.0841 C   0  0  0  0  0  0  0  0  0  0  0  0
   -0.0787   -2.5722    0.4425 N   0  0  0  0  0  0  0  0  0  0  0  0
   -0.0988   -1.2640    0.1766 C   0  0  0  0  0  0  0  0  0  0  0  0
   -1.0940   -0.6554   -0.6460 C   0  0  0  0  0  0  0  0  0  0  0  0
   -1.0519    0.7428   -0.8776 C   0  0  0  0  0  0  0  0  0  0  0  0
   -0.0825    1.5225   -0.3345 C   0  0  0  0  0  0  0  0  0  0  0  0
    0.9338    0.9714    0.4830 C   0  0  0  0  0  0  0  0  0  0  0  0
    1.9693    1.7678    1.0609 C   0  0  0  0  0  0  0  0  0  0  0  0
    2.0272    3.2375    0.8088 C   0  0  0  0  0  0  0  0  0  0  0  0
    2.9002    1.1282    1.8379 C   0  0  0  0  0  0  0  0  0  0  0  0
    2.8249   -0.2543    2.0338 C   0  0  0  0  0  0  0  0  0  0  0  0
    1.8672   -1.0271    1.5010 N   0  0  0  0  0  0  0  0  0  0  0  0
    0.9425   -0.4355    0.7457 C   0  0  0  0  0  0  0  0  0  0  0  0
   -2.7481   -0.4092   -2.9497 H   0  0  0  0  0  0  0  0  0  0  0  0
   -3.8486   -1.6984   -2.4508 H   0  0  0  0  0  0  0  0  0  0  0  0
   -3.7704   -0.1861   -1.5374 H   0  0  0  0  0  0  0  0  0  0  0  0
   -2.8081   -3.5062   -1.3108 H   0  0  0  0  0  0  0  0  0  0  0  0
   -1.0109   -4.3841    0.1513 H   0  0  0  0  0  0  0  0  0  0  0  0
   -1.8141    1.1948   -1.4973 H   0  0  0  0  0  0  0  0  0  0  0  0
   -0.0813    2.5872   -0.5339 H   0  0  0  0  0  0  0  0  0  0  0  0
    2.8747    3.6815    1.3503 H   0  0  0  0  0  0  0  0  0  0  0  0
    1.1220    3.7427    1.1386 H   0  0  0  0  0  0  0  0  0  0  0  0
    2.1567    3.4568   -0.2498 H   0  0  0  0  0  0  0  0  0  0  0  0
    3.6952    1.6933    2.3059 H   0  0  0  0  0  0  0  0  0  0  0  0
    3.5604   -0.7537    2.6432 H   0  0  0  0  0  0  0  0  0  0  0  0
  1  2  1  0
  2  3  2  0
  3  4  1  0
  4  5  2  0
  5  6  1  0
  6  7  2  0
  7  8  1  0
  8  9  2  0
  9 10  1  0
 10 11  2  0
 11 12  1  0
 11 13  1  0
 13 14  2  0
 14 15  1  0
 15 16  2  0
  7  2  1  0
 16 10  1  0
 16  6  1  0
  1 17  1  0
  1 18  1  0
  1 19  1  0
  3 20  1  0
  4 21  1  0
  8 22  1  0
  9 23  1  0
 12 24  1  0
 12 25  1  0
 12 26  1  0
 13 27  1  0
 14 28  1  0
M  END
$$$$

     RDKit          3D

 28 30  0  0  0  0  0  0  0  0999 V2000
    3.3970   -0.6112    1.8327 C   0  0  0  0  0  0  0  0  0  0  0  0
    2.7799   -0.4248    0.4862 C   0  0  0  0  0  0  0  0  0  0  0  0
    3.5261   -0.4561   -0.6592 C   0  0  0  0  0  0  0  0  0  0  0  0
    2.9088   -0.2770   -1.9044 C   0  0  0  0  0  0  0  0  0  0  0  0
    1.5976   -0.0660   -2.0554 N   0  0  0  0  0  0  0  0  0  0  0  0
    0.8392   -0.0356   -0.9555 C   0  0  0  0  0  0  0  0  0  0  0  0
    1.3673   -0.2107    0.3571 C   0  0  0  0  0  0  0  0  0  0  0  0
    0.4918   -0.1772    1.4733 C   0  0  0  0  0  0  0  0  0  0  0  0
   -0.8432    0.0131    1.3202 C   0  0  0  0  0  0  0  0  0  0  0  0
   -1.4199    0.2009    0.0405 C   0  0  0  0  0  0  0  0  0  0  0  0
   -2.8185    0.4190   -0.1500 C   0  0  0  0  0  0  0  0  0  0  0  0
   -3.7471    0.4699    1.0195 C   0  0  0  0  0  0  0  0  0  0  0  0
   -3.2634    0.5670   -1.4395 C   0  0  0  0  0  0  0  0  0  0  0  0
   -2.3640    0.5079   -2.5111 C   0  0  0  0  0  0  0  0  0  0  0  0
   -1.0478    0.3114   -2.3597 N   0  0  0  0  0  0  0  0  0  0  0  0
   -0.5829    0.1684   -1.1191 C   0  0  0  0  0  0  0  0  0  0  0  0
    4.4806   -0.7591    1.7447 H   0  0  0  0  0  0  0  0  0  0  0  0
    2.9867   -1.4783    2.3470 H   0  0  0  0  0  0  0  0  0  0  0  0
    3.2295    0.2576    2.4705 H   0  0  0  0  0  0  0  0  0  0  0  0
    4.5933   -0.6268   -0.6084 H   0  0  0  0  0  0  0  0  0  0  0  0
    3.4975   -0.3053   -2.8078 H   0  0  0  0  0  0  0  0  0  0  0  0
    0.9050   -0.3057    2.4666 H   0  0  0  0  0  0  0  0  0  0  0  0
   -1.4849    0.0148    2.1922 H   0  0  0  0  0  0  0  0  0  0  0  0
   -3.4838    1.2739    1.7071 H   0  0  0  0  0  0  0  0  0  0  0  0
   -4.7778    0.6430    0.6828 H   0  0  0  0  0  0  0  0  0  0  0  0
   -3.7317   -0.4634    1.5845 H   0  0  0  0  0  0  0  0  0  0  0  0
   -4.3152    0.7319   -1.6313 H   0  0  0  0  0  0  0  0  0  0  0  0
   -2.7201    0.6186   -3.5235 H   0  0  0  0  0  0  0  0  0  0  0  0
  1  2  1  0
  2  3  2  0
  3  4  1  0
  4  5  2  0
  5  6  1  0
  6  7  2  0
  7  8  1  0
  8  9  2  0
  9 10  1  0
 10 11  2  0
 11 12  1  0
 11 13  1  0
 13 14  2  0
 14 15  1  0
 15 16  2  0
  7  2  1  0
 16 10  1  0
 16  6  1  0
  1 17  1  0
  1 18  1  0
  1 19  1  0
  3 20  1  0
  4 21  1  0
  8 22  1  0
  9 23  1  0
 12 24  1  0
 12 25  1  0
 12 26  1  0
 13 27  1  0
 14 28  1  0
M  END
$$$$

     RDKit          3D

 28 30  0  0  0  0  0  0  0  0999 V2000
   -3.4663    1.3047   -1.2500 C   0  0  0  0  0  0  0  0  0  0  0  0
   -2.2988    1.6467   -0.3836 C   0  0  0  0  0  0  0  0  0  0  0  0
   -2.2493    2.8129    0.3260 C   0  0  0  0  0  0  0  0  0  0  0  0
   -1.1445    3.0932    1.1422 C   0  0  0  0  0  0  0  0  0  0  0  0
   -0.1009    2.2709    1.2770 N   0  0  0  0  0  0  0  0  0  0  0  0
   -0.1105    1.1266    0.5858 C   0  0  0  0  0  0  0  0  0  0  0  0
   -1.1888    0.7463   -0.2679 C   0  0  0  0  0  0  0  0  0  0  0  0
   -1.1333   -0.4891   -0.9621 C   0  0  0  0  0  0  0  0  0  0  0  0
   -0.0688   -1.3206   -0.8386 C   0  0  0  0  0  0  0  0  0  0  0  0
    1.0268   -0.9990    0.0007 C   0  0  0  0  0  0  0  0  0  0  0  0
    2.1516   -1.8637    0.1678 C   0  0  0  0  0  0  0  0  0  0  0  0
    2.2111   -3.1872   -0.5218 C   0  0  0  0  0  0  0  0  0  0  0  0
    3.1633   -1.4361    0.9911 C   0  0  0  0  0  0  0  0  0  0  0  0
    3.0730   -0.1992    1.6354 C   0  0  0  0  0  0  0  0  0  0  0  0
    2.0230    0.6222    1.5133 N   0  0  0  0  0  0  0  0  0  0  0  0
    1.0227    0.2381    0.7202 C   0  0  0  0  0  0  0  0  0  0  0  0
   -3.1647    1.1542   -2.2850 H   0  0  0  0  0  0  0  0  0  0  0  0
   -4.2091    2.1130   -1.2313 H   0  0  0  0  0  0  0  0  0  0  0  0
   -3.9599    0.3962   -0.9114 H   0  0  0  0  0  0  0  0  0  0  0  0
   -3.0610    3.5236    0.2602 H   0  0  0  0  0  0  0  0  0  0  0  0
   -1.1097    4.0133    1.7019 H   0  0  0  0  0  0  0  0  0  0  0  0
   -1.9606   -0.7722   -1.5994 H   0  0  0  0  0  0  0  0  0  0  0  0
   -0.0575   -2.2551   -1.3868 H   0  0  0  0  0  0  0  0  0  0  0  0
    1.3508   -3.8106   -0.2760 H   0  0  0  0  0  0  0  0  0  0  0  0
    3.1160   -3.7285   -0.2206 H   0  0  0  0  0  0  0  0  0  0  0  0
    2.2341   -3.0758   -1.6068 H   0  0  0  0  0  0  0  0  0  0  0  0
    4.0373   -2.0584    1.1415 H   0  0  0  0  0  0  0  0  0  0  0  0
    3.8739    0.1334    2.2781 H   0  0  0  0  0  0  0  0  0  0  0  0
  1  2  1  0
  2  3  2  0
  3  4  1  0
  4  5  2  0
  5  6  1  0
  6  7  2  0
  7  8  1  0
  8  9  2  0
  9 10  1  0
 10 11  2  0
 11 12  1  0
 11 13  1  0
 13 14  2  0
 14 15  1  0
 15 16  2  0
  7  2  1  0
 16 10  1  0
 16  6  1  0
  1 17  1  0
  1 18  1  0
  1 19  1  0
  3 20  1  0
  4 21  1  0
  8 22  1  0
  9 23  1  0
 12 24  1  0
 12 25  1  0
 12 26  1  0
 13 27  1  0
 14 28  1  0
M  END
$$$$
