
     RDKit          3D

 28 30  0  0  0  0  0  0  0  0999 V2000
    0.2611    3.9639   -1.0386 C   0  0  0  0  0  0  0  0  0  0  0  0
    0.8736    2.6123   -0.8263 C   0  0  0  0  0  0  0  0  0  0  0  0
    2.2510    2.4141   -1.0726 C   0  0  0  0  0  0  0  0  0  0  0  0
    2.7981    1.1759   -0.8820 C   0  0  0  0  0  0  0  0  0  0  0  0
    1.9819    0.1121   -0.4447 C   0  0  0  0  0  0  0  0  0  0  0  0
    2.4803   -1.2047   -0.2138 C   0  0  0  0  0  0  0  0  0  0  0  0
    1.6765   -2.1920    0.2120 C   0  0  0  0  0  0  0  0  0  0  0  0
    0.2879   -1.9665    0.4399 C   0  0  0  0  0  0  0  0  0  0  0  0
   -0.5899   -2.9781    0.8867 C   0  0  0  0  0  0  0  0  0  0  0  0
   -1.9101   -2.6875    1.0778 C   0  0  0  0  0  0  0  0  0  0  0  0
   -2.3801   -1.3813    0.8255 C   0  0  0  0  0  0  0  0  0  0  0  0
   -3.8260   -1.0564    1.0402 C   0  0  0  0  0  0  0  0  0  0  0  0
   -1.5639   -0.3949    0.4026 N   0  0  0  0  0  0  0  0  0  0  0  0
   -0.2746   -0.6725    0.2171 C   0  0  0  0  0  0  0  0  0  0  0  0
    0.6025    0.4034   -0.2357 C   0  0  0  0  0  0  0  0  0  0  0  0
    0.0731    1.6146   -0.4274 N   0  0  0  0  0  0  0  0  0  0  0  0
    0.9094    4.7406   -0.6152 H   0  0  0  0  0  0  0  0  0  0  0  0
    0.1514    4.1614   -2.1052 H   0  0  0  0  0  0  0  0  0  0  0  0
   -0.7174    4.0212   -0.5661 H   0  0  0  0  0  0  0  0  0  0  0  0
    2.8522    3.2495   -1.4056 H   0  0  0  0  0  0  0  0  0  0  0  0
    3.8412    0.9903   -1.0563 H   0  0  0  0  0  0  0  0  0  0  0  0
    3.5376   -1.3824   -0.3889 H   0  0  0  0  0  0  0  0  0  0  0  0
    2.0641   -3.1906    0.3914 H   0  0  0  0  0  0  0  0  0  0  0  0
   -0.1958   -3.9584    1.0708 H   0  0  0  0  0  0  0  0  0  0  0  0
   -2.6049   -3.4438    1.4235 H   0  0  0  0  0  0  0  0  0  0  0  0
   -4.0876   -1.1835    2.0941 H   0  0  0  0  0  0  0  0  0  0  0  0
   -4.0372   -0.0310    0.7428 H   0  0  0  0  0  0  0  0  0  0  0  0
   -4.4545   -1.7357    0.4542 H   0  0  0  0  0  0  0  0  0  0  0  0
  1  2  1  0
  2  3  1  0
  3  4  2  0
  4  5  1  0
  5  6  1  0
  6  7  2  0
  7  8  1  0
  8  9  2  0
  9 10  1  0
 10 11  2  0
 11 12  1  0
 11 13  1  0
 13 14  2  0
 14 15  1  0
 15 16  1  0
 16  2  2  0
 15  5  2  0
 14  8  1  0
  1 17  1  0
  1 18  1  0
  1 19  1  0
  3 20  1  0
  4 21  1  0
  6 22  1  0
  7 23  1  0
  9 24  1  0
 10 25  1  0
 12 26  1  0
 12 27  1  0
 12 28  1  0
M  END
$$$$

     RDKit          3D

 28 30  0  0  0  0  0  0  0  0999 V2000
    2.7122    1.0049   -2.9070 C   0  0  0  0  0  0  0  0  0  0  0  0
    1.6544    1.3678   -1.9103 C   0  0  0  0  0  0  0  0  0  0  0  0
    1.2976    2.7220   -1.7188 C   0  0  0  0  0  0  0  0  0  0  0  0
    0.3473    3.0433   -0.7901 C   0  0  0  0  0  0  0  0  0  0  0  0
   -0.2580    2.0200   -0.0314 C   0  0  0  0  0  0  0  0  0  0  0  0
   -1.2564    2.2721    0.9546 C   0  0  0  0  0  0  0  0  0  0  0  0
   -1.8223    1.2714    1.6495 C   0  0  0  0  0  0  0  0  0  0  0  0
   -1.4288   -0.0836    1.4498 C   0  0  0  0  0  0  0  0  0  0  0  0
   -1.9875   -1.1624    2.1712 C   0  0  0  0  0  0  0  0  0  0  0  0
   -1.5476   -2.4338    1.9320 C   0  0  0  0  0  0  0  0  0  0  0  0
   -0.5501   -2.6526    0.9580 C   0  0  0  0  0  0  0  0  0  0  0  0
   -0.0680   -4.0428    0.6807 C   0  0  0  0  0  0  0  0  0  0  0  0
   -0.0121   -1.6437    0.2469 N   0  0  0  0  0  0  0  0  0  0  0  0
   -0.4281   -0.4018    0.4816 C   0  0  0  0  0  0  0  0  0  0  0  0
    0.1679    0.6852   -0.2909 C   0  0  0  0  0  0  0  0  0  0  0  0
    1.0908    0.3765   -1.2057 N   0  0  0  0  0  0  0  0  0  0  0  0
    3.6929    1.3117   -2.5364 H   0  0  0  0  0  0  0  0  0  0  0  0
    2.5336    1.5261   -3.8550 H   0  0  0  0  0  0  0  0  0  0  0  0
    2.7238   -0.0691   -3.0856 H   0  0  0  0  0  0  0  0  0  0  0  0
    1.7865    3.4846   -2.3099 H   0  0  0  0  0  0  0  0  0  0  0  0
    0.0486    4.0612   -0.6226 H   0  0  0  0  0  0  0  0  0  0  0  0
   -1.5543    3.3035    1.1174 H   0  0  0  0  0  0  0  0  0  0  0  0
   -2.5894    1.4695    2.3914 H   0  0  0  0  0  0  0  0  0  0  0  0
   -2.7473   -0.9535    2.8997 H   0  0  0  0  0  0  0  0  0  0  0  0
   -1.9514   -3.2783    2.4761 H   0  0  0  0  0  0  0  0  0  0  0  0
    0.7852   -4.0289    0.0076 H   0  0  0  0  0  0  0  0  0  0  0  0
   -0.8665   -4.6378    0.2310 H   0  0  0  0  0  0  0  0  0  0  0  0
    0.2271   -4.5316    1.6163 H   0  0  0  0  0  0  0  0  0  0  0  0
  1  2  1  0
  2  3  1  0
  3  4  2  0
  4  5  1  0
  5  6  1  0
  6  7  2  0
  7  8  1  0
  8  9  2  0
  9 10  1  0
 10 11  2  0
 11 12  1  0
 11 13  1  0
 13 14  2  0
 14 15  1  0
 15 16  1  0
 16  2  2  0
 15  5  2  0
 14  8  1  0
  1 17  1  0
  1 18  1  0
  1 19  1  0
  3 20  1  0
  4 21  1  0
  6 22  1  0
  7 23  1  0
  9 24  1  0
 10 25  1  0
 12 26  1  0
 12 27  1  0
 12 28  1  0
M  END
$$$$

     RDKit          3D

 28 30  0  0  0  0  0  0  0  0999 V2000
    0.4326    3.6577    1.8120 C   0  0  0  0  0  0  0  0  0  0  0  0
   -0.0049    2.7958    0.6675 C   0  0  0  0  0  0  0  0  0  0  0  0
   -0.6250    3.3834   -0.4597 C   0  0  0  0  0  0  0  0  0  0  0  0
   -1.0309    2.5885   -1.4947 C   0  0  0  0  0  0  0  0  0  0  0  0
   -0.8262    1.1933   -1.4220 C   0  0  0  0  0  0  0  0  0  0  0  0
   -1.2174    0.3003   -2.4637 C   0  0  0  0  0  0  0  0  0  0  0  0
   -1.0073   -1.0218   -2.3670 C   0  0  0  0  0  0  0  0  0  0  0  0
   -0.3953   -1.5889   -1.2113 C   0  0  0  0  0  0  0  0  0  0  0  0
   -0.1740   -2.9757   -1.0611 C   0  0  0  0  0  0  0  0  0  0  0  0
    0.4280   -3.4440    0.0718 C   0  0  0  0  0  0  0  0  0  0  0  0
    0.8254   -2.5360    1.0755 C   0  0  0  0  0  0  0  0  0  0  0  0
    1.4948   -3.0378    2.3170 C   0  0  0  0  0  0  0  0  0  0  0  0
    0.6166   -1.2112    0.9620 N   0  0  0  0  0  0  0  0  0  0  0  0
    0.0238   -0.7478   -0.1355 C   0  0  0  0  0  0  0  0  0  0  0  0
   -0.2003    0.6913   -0.2452 C   0  0  0  0  0  0  0  0  0  0  0  0
    0.1924    1.4741    0.7635 N   0  0  0  0  0  0  0  0  0  0  0  0
    1.0434    4.4878    1.4422 H   0  0  0  0  0  0  0  0  0  0  0  0
   -0.4377    4.0778    2.3205 H   0  0  0  0  0  0  0  0  0  0  0  0
    1.0173    3.0802    2.5272 H   0  0  0  0  0  0  0  0  0  0  0  0
   -0.7657    4.4569   -0.4834 H   0  0  0  0  0  0  0  0  0  0  0  0
   -1.5019    2.9987   -2.3684 H   0  0  0  0  0  0  0  0  0  0  0  0
   -1.6858    0.7346   -3.3431 H   0  0  0  0  0  0  0  0  0  0  0  0
   -1.3035   -1.6989   -3.1648 H   0  0  0  0  0  0  0  0  0  0  0  0
   -0.4910   -3.6357   -1.8448 H   0  0  0  0  0  0  0  0  0  0  0  0
    0.6095   -4.5023    0.2119 H   0  0  0  0  0  0  0  0  0  0  0  0
    1.8747   -2.2091    2.9116 H   0  0  0  0  0  0  0  0  0  0  0  0
    0.7829   -3.6076    2.9203 H   0  0  0  0  0  0  0  0  0  0  0  0
    2.3254   -3.7036    2.0617 H   0  0  0  0  0  0  0  0  0  0  0  0
  1  2  1  0
  2  3  1  0
  3  4  2  0
  4  5  1  0
  5  6  1  0
  6  7  2  0
  7  8  1  0
  8  9  2  0
  9 10  1  0
 10 11  2  0
 11 12  1  0
 11 13  1  0
 13 14  2  0
 14 15  1  0
 15 16  1  0
 16  2  2  0
 15  5  2  0
 14  8  1  0
  1 17  1  0
  1 18  1  0
  1 19  1  0
  3 20  1  0
  4 21  1  0
  6 22  1  0
  7 23  1  0
  9 24  1  0
 10 25  1  0
 12 26  1  0
 12 27  1  0
 12 28  1  0
M  END
$$$$

     RDKit          3D

 28 30  0  0  0  0  0  0  0  0999 V2000
   -1.3517   -2.2749   -3.1351 C   0  0  0  0  0  0  0  0  0  0  0  0
   -0.4741   -1.2027   -2.5669 C   0  0  0  0  0  0  0  0  0  0  0  0
    0.4252   -0.5074   -3.4079 C   0  0  0  0  0  0  0  0  0  0  0  0
    1.2219    0.4691   -2.8804 C   0  0  0  0  0  0  0  0  0  0  0  0
    1.1306    0.7725   -1.5050 C   0  0  0  0  0  0  0  0  0  0  0  0
    1.9180    1.7851   -0.8799 C   0  0  0  0  0  0  0  0  0  0  0  0
    1.8044    2.0503    0.4312 C   0  0  0  0  0  0  0  0  0  0  0  0
    0.9050    1.3182    1.2585 C   0  0  0  0  0  0  0  0  0  0  0  0
    0.7709    1.5570    2.6441 C   0  0  0  0  0  0  0  0  0  0  0  0
   -0.1095    0.8107    3.3750 C   0  0  0  0  0  0  0  0  0  0  0  0
   -0.8746   -0.1861    2.7326 C   0  0  0  0  0  0  0  0  0  0  0  0
   -1.8495   -1.0038    3.5223 C   0  0  0  0  0  0  0  0  0  0  0  0
   -0.7707   -0.4278    1.4122 N   0  0  0  0  0  0  0  0  0  0  0  0
    0.0882    0.2914    0.6933 C   0  0  0  0  0  0  0  0  0  0  0  0
    0.2012    0.0152   -0.7357 C   0  0  0  0  0  0  0  0  0  0  0  0
   -0.5760   -0.9400   -1.2568 N   0  0  0  0  0  0  0  0  0  0  0  0
   -1.9687   -2.7207   -2.3578 H   0  0  0  0  0  0  0  0  0  0  0  0
   -0.7402   -3.0559   -3.5962 H   0  0  0  0  0  0  0  0  0  0  0  0
   -1.9991   -1.8570   -3.9102 H   0  0  0  0  0  0  0  0  0  0  0  0
    0.4677   -0.7575   -4.4599 H   0  0  0  0  0  0  0  0  0  0  0  0
    1.9158    1.0163   -3.4890 H   0  0  0  0  0  0  0  0  0  0  0  0
    2.6095    2.3406   -1.5074 H   0  0  0  0  0  0  0  0  0  0  0  0
    2.4072    2.8235    0.9000 H   0  0  0  0  0  0  0  0  0  0  0  0
    1.3690    2.3273    3.0919 H   0  0  0  0  0  0  0  0  0  0  0  0
   -0.2352    0.9738    4.4380 H   0  0  0  0  0  0  0  0  0  0  0  0
   -1.3595   -1.4241    4.4065 H   0  0  0  0  0  0  0  0  0  0  0  0
   -2.6756   -0.3758    3.8623 H   0  0  0  0  0  0  0  0  0  0  0  0
   -2.2502   -1.8172    2.9202 H   0  0  0  0  0  0  0  0  0  0  0  0
  1  2  1  0
  2  3  1  0
  3  4  2  0
  4  5  1  0
  5  6  1  0
  6  7  2  0
  7  8  1  0
  8  9  2  0
  9 10  1  0
 10 11  2  0
 11 12  1  0
 11 13  1  0
 13 14  2  0
 14 15  1  0
 15 16  1  0
 16  2  2  0
 15  5  2  0
 14  8  1  0
  1 17  1  0
  1 18  1  0
  1 19  1  0
  3 20  1  0
  4 21  1  0
  6 22  1  0
  7 23  1  0
  9 24  1  0
 10 25  1  0
 12 26  1  0
 12 27  1  0
 12 28  1  0
M  END
$$$$

     RDKit          3D

 28 30  0  0  0  0  0  0  0  0999 V2000
   -3.0728    1.4217    2.3102 C   0  0  0  0  0  0  0  0  0  0  0  0
   -2.2840    1.4031    1.0347 C   0  0  0  0  0  0  0  0  0  0  0  0
   -2.6417    2.2528   -0.0388 C   0  0  0  0  0  0  0  0  0  0  0  0
   -1.9088    2.2221   -1.1935 C   0  0  0  0  0  0  0  0  0  0  0  0
   -0.8153    1.3386   -1.3016 C   0  0  0  0  0  0  0  0  0  0  0  0
   -0.0136    1.2388   -2.4773 C   0  0  0  0  0  0  0  0  0  0  0  0
    1.0246    0.3897   -2.5424 C   0  0  0  0  0  0  0  0  0  0  0  0
    1.3702   -0.4449   -1.4393 C   0  0  0  0  0  0  0  0  0  0  0  0
    2.4636   -1.3398   -1.4648 C   0  0  0  0  0  0  0  0  0  0  0  0
    2.7323   -2.1052   -0.3651 C   0  0  0  0  0  0  0  0  0  0  0  0
    1.9102   -1.9971    0.7774 C   0  0  0  0  0  0  0  0  0  0  0  0
    2.1973   -2.8313    1.9874 C   0  0  0  0  0  0  0  0  0  0  0  0
    0.8632   -1.1529    0.8257 N   0  0  0  0  0  0  0  0  0  0  0  0
    0.6000   -0.3986   -0.2379 C   0  0  0  0  0  0  0  0  0  0  0  0
   -0.5314    0.5218   -0.1697 C   0  0  0  0  0  0  0  0  0  0  0  0
   -1.2498    0.5553    0.9574 N   0  0  0  0  0  0  0  0  0  0  0  0
   -3.1171    2.4366    2.7100 H   0  0  0  0  0  0  0  0  0  0  0  0
   -2.6162    0.7687    3.0535 H   0  0  0  0  0  0  0  0  0  0  0  0
   -4.0954    1.0814    2.1233 H   0  0  0  0  0  0  0  0  0  0  0  0
   -3.4928    2.9126    0.0702 H   0  0  0  0  0  0  0  0  0  0  0  0
   -2.1439    2.8588   -2.0260 H   0  0  0  0  0  0  0  0  0  0  0  0
   -0.2752    1.8738   -3.3181 H   0  0  0  0  0  0  0  0  0  0  0  0
    1.6295    0.3156   -3.4401 H   0  0  0  0  0  0  0  0  0  0  0  0
    3.0627   -1.3937   -2.3523 H   0  0  0  0  0  0  0  0  0  0  0  0
    3.5695   -2.7903   -0.3539 H   0  0  0  0  0  0  0  0  0  0  0  0
    1.4486   -2.6659    2.7609 H   0  0  0  0  0  0  0  0  0  0  0  0
    3.1835   -2.5804    2.3899 H   0  0  0  0  0  0  0  0  0  0  0  0
    2.2028   -3.8914    1.7205 H   0  0  0  0  0  0  0  0  0  0  0  0
  1  2  1  0
  2  3  1  0
  3  4  2  0
  4  5  1  0
  5  6  1  0
  6  7  2  0
  7  8  1  0
  8  9  2  0
  9 10  1  0
 10 11  2  0
 11 12  1  0
 11 13  1  0
 13 14  2  0
 14 15  1  0
 15 16  1  0
 16  2  2  0
 15  5  2  0
 14  8  1  0
  1 17  1  0
  1 18  1  0
  1 19  1  0
  3 20  1  0
  4 21  1  0
  6 22  1  0
  7 23  1  0
  9 24  1  0
 10 25  1  0
 12 26  1  0
 12 27  1  0
 12 28  1  0
M  END
$$$$

     RDKit          3D

 28 30  0  0  0  0  0  0  0  0999 V2000
    4.0566    0.3934   -0.4225 C   0  0  0  0  0  0  0  0  0  0  0  0
    2.6997    0.0936   -0.9849 C   0  0  0  0  0  0  0  0  0  0  0  0
    2.5424   -0.2091   -2.3575 C   0  0  0  0  0  0  0  0  0  0  0  0
    1.2922   -0.4643   -2.8520 C   0  0  0  0  0  0  0  0  0  0  0  0
    0.1772   -0.4194   -1.9867 C   0  0  0  0  0  0  0  0  0  0  0  0
   -1.1582   -0.6686   -2.4235 C   0  0  0  0  0  0  0  0  0  0  0  0
   -2.1953   -0.6032   -1.5752 C   0  0  0  0  0  0  0  0  0  0  0  0
   -2.0080   -0.2796   -0.1999 C   0  0  0  0  0  0  0  0  0  0  0  0
   -3.0780   -0.1818    0.7187 C   0  0  0  0  0  0  0  0  0  0  0  0
   -2.8178    0.1207    2.0254 C   0  0  0  0  0  0  0  0  0  0  0  0
   -1.4850    0.3332    2.4364 C   0  0  0  0  0  0  0  0  0  0  0  0
   -1.1822    0.6862    3.8607 C   0  0  0  0  0  0  0  0  0  0  0  0
   -0.4489    0.2448    1.5809 N   0  0  0  0  0  0  0  0  0  0  0  0
   -0.6947   -0.0379    0.3053 C   0  0  0  0  0  0  0  0  0  0  0  0
    0.4338   -0.1050   -0.6213 C   0  0  0  0  0  0  0  0  0  0  0  0
    1.6576    0.1421   -0.1450 N   0  0  0  0  0  0  0  0  0  0  0  0
    4.0272    0.4112    0.6642 H   0  0  0  0  0  0  0  0  0  0  0  0
    4.7768   -0.3660   -0.7447 H   0  0  0  0  0  0  0  0  0  0  0  0
    4.4027    1.3654   -0.7806 H   0  0  0  0  0  0  0  0  0  0  0  0
    3.4141   -0.2405   -2.9977 H   0  0  0  0  0  0  0  0  0  0  0  0
    1.1376   -0.6977   -3.8885 H   0  0  0  0  0  0  0  0  0  0  0  0
   -1.3059   -0.9162   -3.4722 H   0  0  0  0  0  0  0  0  0  0  0  0
   -3.2108   -0.7862   -1.9147 H   0  0  0  0  0  0  0  0  0  0  0  0
   -4.0765   -0.3528    0.3661 H   0  0  0  0  0  0  0  0  0  0  0  0
   -3.6170    0.1998    2.7507 H   0  0  0  0  0  0  0  0  0  0  0  0
   -1.4888    1.7144    4.0573 H   0  0  0  0  0  0  0  0  0  0  0  0
   -0.1177    0.5911    4.0559 H   0  0  0  0  0  0  0  0  0  0  0  0
   -1.7333    0.0325    4.5452 H   0  0  0  0  0  0  0  0  0  0  0  0
  1  2  1  0
  2  3  1  0
  3  4  2  0
  4  5  1  0
  5  6  1  0
  6  7  2  0
  7  8  1  0
  8  9  2  0
  9 10  1  0
 10 11  2  0
 11 12  1  0
 11 13  1  0
 13 14  2  0
 14 15  1  0
 15 16  1  0
 16  2  2  0
 15  5  2  0
 14  8  1  0
  1 17  1  0
  1 18  1  0
  1 19  1  0
  3 20  1  0
  4 21  1  0
  6 22  1  0
  7 23  1  0
  9 24  1  0
 10 25  1  0
 12 26  1  0
 12 27  1  0
 12 28  1  0
M  END
$$$$

     RDKit          3D

 28 30  0  0  0  0  0  0  0  0999 V2000
   -3.9649    0.7480    0.7214 C   0  0  0  0  0  0  0  0  0  0  0  0
   -2.5095    0.9555    1.0195 C   0  0  0  0  0  0  0  0  0  0  0  0
   -2.1104    1.8294    2.0575 C   0  0  0  0  0  0  0  0  0  0  0  0
   -0.7788    2.0217    2.3015 C   0  0  0  0  0  0  0  0  0  0  0  0
    0.1805    1.3510    1.5139 C   0  0  0  0  0  0  0  0  0  0  0  0
    1.5869    1.5113    1.6980 C   0  0  0  0  0  0  0  0  0  0  0  0
    2.4703    0.8402    0.9416 C   0  0  0  0  0  0  0  0  0  0  0  0
    2.0383   -0.0649   -0.0732 C   0  0  0  0  0  0  0  0  0  0  0  0
    2.9309   -0.8065   -0.8793 C   0  0  0  0  0  0  0  0  0  0  0  0
    2.4358   -1.6674   -1.8179 C   0  0  0  0  0  0  0  0  0  0  0  0
    1.0396   -1.7966   -1.9786 C   0  0  0  0  0  0  0  0  0  0  0  0
    0.4910   -2.7381   -3.0067 C   0  0  0  0  0  0  0  0  0  0  0  0
    0.1689   -1.0995   -1.2266 N   0  0  0  0  0  0  0  0  0  0  0  0
    0.6433   -0.2629   -0.3081 C   0  0  0  0  0  0  0  0  0  0  0  0
   -0.3163    0.4777    0.5042 C   0  0  0  0  0  0  0  0  0  0  0  0
   -1.6189    0.2999    0.2622 N   0  0  0  0  0  0  0  0  0  0  0  0
   -4.4917    0.4275    1.6255 H   0  0  0  0  0  0  0  0  0  0  0  0
   -4.4151    1.6829    0.3819 H   0  0  0  0  0  0  0  0  0  0  0  0
   -4.0952   -0.0064   -0.0535 H   0  0  0  0  0  0  0  0  0  0  0  0
   -2.8676    2.3321    2.6466 H   0  0  0  0  0  0  0  0  0  0  0  0
   -0.4410    2.6769    3.0837 H   0  0  0  0  0  0  0  0  0  0  0  0
    1.9178    2.1935    2.4770 H   0  0  0  0  0  0  0  0  0  0  0  0
    3.5399    0.9641    1.0877 H   0  0  0  0  0  0  0  0  0  0  0  0
    3.9858   -0.6793   -0.7326 H   0  0  0  0  0  0  0  0  0  0  0  0
    3.0950   -2.2574   -2.4401 H   0  0  0  0  0  0  0  0  0  0  0  0
   -0.5932   -2.6622   -3.0590 H   0  0  0  0  0  0  0  0  0  0  0  0
    0.9119   -2.5046   -3.9889 H   0  0  0  0  0  0  0  0  0  0  0  0
    0.7666   -3.7660   -2.7578 H   0  0  0  0  0  0  0  0  0  0  0  0
  1  2  1  0
  2  3  1  0
  3  4  2  0
  4  5  1  0
  5  6  1  0
  6  7  2  0
  7  8  1  0
  8  9  2  0
  9 10  1  0
 10 11  2  0
 11 12  1  0
 11 13  1  0
 13 14  2  0
 14 15  1  0
 15 16  1  0
 16  2  2  0
 15  5  2  0
 14  8  1  0
  1 17  1  0
  1 18  1  0
  1 19  1  0
  3 20  1  0
  4 21  1  0
  6 22  1  0
  7 23  1  0
  9 24  1  0
 10 25  1  0
 12 26  1  0
 12 27  1  0
 12 28  1  0
M  END
$$$$

     RDKit          3D

 28 30  0  0  0  0  0  0  0  0999 V2000
   -3.3641   -1.4520    1.8480 C   0  0  0  0  0  0  0  0  0  0  0  0
   -2.2429   -1.5753    0.8613 C   0  0  0  0  0  0  0  0  0  0  0  0
   -2.1205   -2.7455    0.0774 C   0  0  0  0  0  0  0  0  0  0  0  0
   -1.1012   -2.8434   -0.8288 C   0  0  0  0  0  0  0  0  0  0  0  0
   -0.1818   -1.7823   -0.9615 C   0  0  0  0  0  0  0  0  0  0  0  0
    0.9045   -1.8095   -1.8860 C   0  0  0  0  0  0  0  0  0  0  0  0
    1.7686   -0.7862   -1.9821 C   0  0  0  0  0  0  0  0  0  0  0  0
    1.6435    0.3644   -1.1491 C   0  0  0  0  0  0  0  0  0  0  0  0
    2.5474    1.4499   -1.1952 C   0  0  0  0  0  0  0  0  0  0  0  0
    2.3631    2.5174   -0.3628 C   0  0  0  0  0  0  0  0  0  0  0  0
    1.2667    2.5241    0.5268 C   0  0  0  0  0  0  0  0  0  0  0  0
    1.0542    3.6913    1.4426 C   0  0  0  0  0  0  0  0  0  0  0  0
    0.3882    1.5046    0.5873 N   0  0  0  0  0  0  0  0  0  0  0  0
    0.5690    0.4567   -0.2122 C   0  0  0  0  0  0  0  0  0  0  0  0
   -0.3759   -0.6522   -0.1181 C   0  0  0  0  0  0  0  0  0  0  0  0
   -1.3790   -0.5571    0.7602 N   0  0  0  0  0  0  0  0  0  0  0  0
   -4.3242   -1.5741    1.3358 H   0  0  0  0  0  0  0  0  0  0  0  0
   -3.3408   -0.4786    2.3326 H   0  0  0  0  0  0  0  0  0  0  0  0
   -3.2859   -2.2308    2.6103 H   0  0  0  0  0  0  0  0  0  0  0  0
   -2.8416   -3.5408    0.2034 H   0  0  0  0  0  0  0  0  0  0  0  0
   -0.9799   -3.7129   -1.4462 H   0  0  0  0  0  0  0  0  0  0  0  0
    1.0082   -2.6917   -2.5105 H   0  0  0  0  0  0  0  0  0  0  0  0
    2.5910   -0.8108   -2.6901 H   0  0  0  0  0  0  0  0  0  0  0  0
    3.3690    1.4079   -1.8845 H   0  0  0  0  0  0  0  0  0  0  0  0
    3.0437    3.3582   -0.3725 H   0  0  0  0  0  0  0  0  0  0  0  0
    1.9388    3.8476    2.0667 H   0  0  0  0  0  0  0  0  0  0  0  0
    0.1942    3.5183    2.0858 H   0  0  0  0  0  0  0  0  0  0  0  0
    0.8879    4.6028    0.8612 H   0  0  0  0  0  0  0  0  0  0  0  0
  1  2  1  0
  2  3  1  0
  3  4  2  0
  4  5  1  0
  5  6  1  0
  6  7  2  0
  7  8  1  0
  8  9  2  0
  9 10  1  0
 10 11  2  0
 11 12  1  0
 11 13  1  0
 13 14  2  0
 14 15  1  0
 15 16  1  0
 16  2  2  0
 15  5  2  0
 14  8  1  0
  1 17  1  0
  1 18  1  0
  1 19  1  0
  3 20  1  0
  4 21  1  0
  6 22  1  0
  7 23  1  0
  9 24  1  0
 10 25  1  0
 12 26  1  0
 12 27  1  0
 12 28  1  0
M  END
$$$$

     RDKit          3D

 28 30  0  0  0  0  0  0  0  0999 V2000
   -2.6170    0.0100   -3.1618 C   0  0  0  0  0  0  0  0  0  0  0  0
   -1.4780    0.6122   -2.3940 C   0  0  0  0  0  0  0  0  0  0  0  0
   -0.8261    1.7715   -2.8709 C   0  0  0  0  0  0  0  0  0  0  0  0
    0.2263    2.2902   -2.1686 C   0  0  0  0  0  0  0  0  0  0  0  0
    0.6506    1.6574   -0.9823 C   0  0  0  0  0  0  0  0  0  0  0  0
    1.7330    2.1448   -0.1911 C   0  0  0  0  0  0  0  0  0  0  0  0
    2.1112    1.5261    0.9375 C   0  0  0  0  0  0  0  0  0  0  0  0
    1.4498    0.3479    1.3892 C   0  0  0  0  0  0  0  0  0  0  0  0
    1.8164   -0.3361    2.5703 C   0  0  0  0  0  0  0  0  0  0  0  0
    1.1303   -1.4583    2.9386 C   0  0  0  0  0  0  0  0  0  0  0  0
    0.0726   -1.9253    2.1273 C   0  0  0  0  0  0  0  0  0  0  0  0
   -0.6727   -3.1639    2.5177 C   0  0  0  0  0  0  0  0  0  0  0  0
   -0.2926   -1.2946    0.9975 N   0  0  0  0  0  0  0  0  0  0  0  0
    0.3609   -0.1931    0.6365 C   0  0  0  0  0  0  0  0  0  0  0  0
   -0.0575    0.4882   -0.5856 C   0  0  0  0  0  0  0  0  0  0  0  0
   -1.0909   -0.0111   -1.2711 N   0  0  0  0  0  0  0  0  0  0  0  0
   -2.2328   -0.6911   -3.9012 H   0  0  0  0  0  0  0  0  0  0  0  0
   -3.2896   -0.5263   -2.4972 H   0  0  0  0  0  0  0  0  0  0  0  0
   -3.1836    0.7905   -3.6845 H   0  0  0  0  0  0  0  0  0  0  0  0
   -1.1711    2.2366   -3.7844 H   0  0  0  0  0  0  0  0  0  0  0  0
    0.7409    3.1728   -2.4971 H   0  0  0  0  0  0  0  0  0  0  0  0
    2.2377    3.0430   -0.5357 H   0  0  0  0  0  0  0  0  0  0  0  0
    2.9348    1.9062    1.5341 H   0  0  0  0  0  0  0  0  0  0  0  0
    2.6282    0.0461    3.1591 H   0  0  0  0  0  0  0  0  0  0  0  0
    1.3812   -1.9991    3.8422 H   0  0  0  0  0  0  0  0  0  0  0  0
   -1.4682   -3.3794    1.8100 H   0  0  0  0  0  0  0  0  0  0  0  0
   -1.1063   -3.0487    3.5169 H   0  0  0  0  0  0  0  0  0  0  0  0
    0.0125   -4.0167    2.5484 H   0  0  0  0  0  0  0  0  0  0  0  0
  1  2  1  0
  2  3  1  0
  3  4  2  0
  4  5  1  0
  5  6  1  0
  6  7  2  0
  7  8  1  0
  8  9  2  0
  9 10  1  0
 10 11  2  0
 11 12  1  0
 11 13  1  0
 13 14  2  0
 14 15  1  0
 15 16  1  0
 16  2  2  0
 15  5  2  0
 14  8  1  0
  1 17  1  0
  1 18  1  0
  1 19  1  0
  3 20  1  0
  4 21  1  0
  6 22  1  0
  7 23  1  0
  9 24  1  0
 10 25  1  0
 12 26  1  0
 12 27  1  0
 12 28  1  0
M  END
$$$$

     RDKit          3D

 28 30  0  0  0  0  0  0  0  0999 V2000
    1.9669    2.8419   -2.2235 C   0  0  0  0  0  0  0  0  0  0  0  0
    1.6195    1.4187   -1.9079 C   0  0  0  0  0  0  0  0  0  0  0  0
    2.1647    0.3731   -2.6869 C   0  0  0  0  0  0  0  0  0  0  0  0
    1.8335   -0.9216   -2.3997 C   0  0  0  0  0  0  0  0  0  0  0  0
    0.9437   -1.1971   -1.3390 C   0  0  0  0  0  0  0  0  0  0  0  0
    0.5356   -2.5213   -0.9969 C   0  0  0  0  0  0  0  0  0  0  0  0
   -0.3007   -2.7526    0.0241 C   0  0  0  0  0  0  0  0  0  0  0  0
   -0.8134   -1.6808    0.8133 C   0  0  0  0  0  0  0  0  0  0  0  0
   -1.6873   -1.8797    1.9040 C   0  0  0  0  0  0  0  0  0  0  0  0
   -2.1310   -0.8041    2.6197 C   0  0  0  0  0  0  0  0  0  0  0  0
   -1.7074    0.4937    2.2610 C   0  0  0  0  0  0  0  0  0  0  0  0
   -2.1856    1.6778    3.0447 C   0  0  0  0  0  0  0  0  0  0  0  0
   -0.8752    0.7107    1.2262 N   0  0  0  0  0  0  0  0  0  0  0  0
   -0.4445   -0.3305    0.5210 C   0  0  0  0  0  0  0  0  0  0  0  0
    0.4552   -0.0811   -0.6016 C   0  0  0  0  0  0  0  0  0  0  0  0
    0.7775    1.1835   -0.8919 N   0  0  0  0  0  0  0  0  0  0  0  0
    3.0480    2.9898   -2.1541 H   0  0  0  0  0  0  0  0  0  0  0  0
    1.4713    3.5212   -1.5348 H   0  0  0  0  0  0  0  0  0  0  0  0
    1.6601    3.0827   -3.2450 H   0  0  0  0  0  0  0  0  0  0  0  0
    2.8391    0.6149   -3.4978 H   0  0  0  0  0  0  0  0  0  0  0  0
    2.2366   -1.7413   -2.9635 H   0  0  0  0  0  0  0  0  0  0  0  0
    0.9311   -3.3387   -1.5942 H   0  0  0  0  0  0  0  0  0  0  0  0
   -0.6088   -3.7643    0.2744 H   0  0  0  0  0  0  0  0  0  0  0  0
   -1.9892   -2.8821    2.1416 H   0  0  0  0  0  0  0  0  0  0  0  0
   -2.8002   -0.9291    3.4604 H   0  0  0  0  0  0  0  0  0  0  0  0
   -1.8580    1.6046    4.0849 H   0  0  0  0  0  0  0  0  0  0  0  0
   -1.8023    2.6015    2.6208 H   0  0  0  0  0  0  0  0  0  0  0  0
   -3.2793    1.7102    3.0405 H   0  0  0  0  0  0  0  0  0  0  0  0
  1  2  1  0
  2  3  1  0
  3  4  2  0
  4  5  1  0
  5  6  1  0
  6  7  2  0
  7  8  1  0
  8  9  2  0
  9 10  1  0
 10 11  2  0
 11 12  1  0
 11 13  1  0
 13 14  2  0
 14 15  1  0
 15 16  1  0
 16  2  2  0
 15  5  2  0
 14  8  1  0
  1 17  1  0
  1 18  1  0
  1 19  1  0
  3 20  1  0
  4 21  1  0
  6 22  1  0
  7 23  1  0
  9 24  1  0
 10 25  1  0
 12 26  1  0
 12 27  1  0
 12 28  1  0
M  END
$$$$

     RDKit          3D

 28 30  0  0  0  0  0  0  0  0999 V2000
   -3.8842    1.2539   -0.3333 C   0  0  0  0  0  0  0  0  0  0  0  0
   -2.6112    0.7403   -0.9326 C   0  0  0  0  0  0  0  0  0  0  0  0
   -2.5366    0.4672   -2.3190 C   0  0  0  0  0  0  0  0  0  0  0  0
   -1.3753   -0.0236   -2.8477 C   0  0  0  0  0  0  0  0  0  0  0  0
   -0.2708   -0.2567   -2.0027 C   0  0  0  0  0  0  0  0  0  0  0  0
    0.9701   -0.7827   -2.4738 C   0  0  0  0  0  0  0  0  0  0  0  0
    2.0002   -0.9887   -1.6403 C   0  0  0  0  0  0  0  0  0  0  0  0
    1.8972   -0.7045   -0.2472 C   0  0  0  0  0  0  0  0  0  0  0  0
    2.9516   -0.9295    0.6632 C   0  0  0  0  0  0  0  0  0  0  0  0
    2.7836   -0.6142    1.9837 C   0  0  0  0  0  0  0  0  0  0  0  0
    1.5575   -0.0688    2.4182 C   0  0  0  0  0  0  0  0  0  0  0  0
    1.3350    0.2594    3.8639 C   0  0  0  0  0  0  0  0  0  0  0  0
    0.5381    0.1566    1.5673 N   0  0  0  0  0  0  0  0  0  0  0  0
    0.6879   -0.1610    0.2856 C   0  0  0  0  0  0  0  0  0  0  0  0
   -0.4354    0.0582   -0.6217 C   0  0  0  0  0  0  0  0  0  0  0  0
   -1.5725    0.5399   -0.1087 N   0  0  0  0  0  0  0  0  0  0  0  0
   -4.1822    2.1826   -0.8230 H   0  0  0  0  0  0  0  0  0  0  0  0
   -4.6856    0.5217   -0.4771 H   0  0  0  0  0  0  0  0  0  0  0  0
   -3.7650    1.4382    0.7334 H   0  0  0  0  0  0  0  0  0  0  0  0
   -3.3993    0.6530   -2.9433 H   0  0  0  0  0  0  0  0  0  0  0  0
   -1.2820   -0.2432   -3.8952 H   0  0  0  0  0  0  0  0  0  0  0  0
    1.0551   -1.0046   -3.5338 H   0  0  0  0  0  0  0  0  0  0  0  0
    2.9445   -1.3850   -2.0050 H   0  0  0  0  0  0  0  0  0  0  0  0
    3.8682   -1.3459    0.2920 H   0  0  0  0  0  0  0  0  0  0  0  0
    3.5799   -0.7735    2.6983 H   0  0  0  0  0  0  0  0  0  0  0  0
    0.7789    1.1889    3.9662 H   0  0  0  0  0  0  0  0  0  0  0  0
    2.2906    0.3561    4.3950 H   0  0  0  0  0  0  0  0  0  0  0  0
    0.7614   -0.5342    4.3377 H   0  0  0  0  0  0  0  0  0  0  0  0
  1  2  1  0
  2  3  1  0
  3  4  2  0
  4  5  1  0
  5  6  1  0
  6  7  2  0
  7  8  1  0
  8  9  2  0
  9 10  1  0
 10 11  2  0
 11 12  1  0
 11 13  1  0
 13 14  2  0
 14 15  1  0
 15 16  1  0
 16  2  2  0
 15  5  2  0
 14  8  1  0
  1 17  1  0
  1 18  1  0
  1 19  1  0
  3 20  1  0
  4 21  1  0
  6 22  1  0
  7 23  1  0
  9 24  1  0
 10 25  1  0
 12 26  1  0
 12 27  1  0
 12 28  1  0
M  END
$$$$

     RDKit          3D

 28 30  0  0  0  0  0  0  0  0999 V2000
    1.7628    2.0927    3.0683 C   0  0  0  0  0  0  0  0  0  0  0  0
    1.8216    1.1367    1.9153 C   0  0  0  0  0  0  0  0  0  0  0  0
    3.0563    0.5570    1.5464 C   0  0  0  0  0  0  0  0  0  0  0  0
    3.1012   -0.3221    0.5012 C   0  0  0  0  0  0  0  0  0  0  0  0
    1.9185   -0.6364   -0.1993 C   0  0  0  0  0  0  0  0  0  0  0  0
    1.8861   -1.5554   -1.2899 C   0  0  0  0  0  0  0  0  0  0  0  0
    0.7414   -1.8400   -1.9278 C   0  0  0  0  0  0  0  0  0  0  0  0
   -0.4858   -1.2157   -1.5567 C   0  0  0  0  0  0  0  0  0  0  0  0
   -1.7084   -1.4777   -2.2132 C   0  0  0  0  0  0  0  0  0  0  0  0
   -2.8423   -0.8276   -1.8150 C   0  0  0  0  0  0  0  0  0  0  0  0
   -2.7776    0.0928   -0.7489 C   0  0  0  0  0  0  0  0  0  0  0  0
   -4.0143    0.8154   -0.3108 C   0  0  0  0  0  0  0  0  0  0  0  0
   -1.6287    0.3481   -0.0948 N   0  0  0  0  0  0  0  0  0  0  0  0
   -0.5188   -0.2786   -0.4796 C   0  0  0  0  0  0  0  0  0  0  0  0
    0.7229    0.0072    0.2337 C   0  0  0  0  0  0  0  0  0  0  0  0
    0.6819    0.8586    1.2649 N   0  0  0  0  0  0  0  0  0  0  0  0
    2.4797    2.9052    2.9205 H   0  0  0  0  0  0  0  0  0  0  0  0
    2.0297    1.5749    3.9940 H   0  0  0  0  0  0  0  0  0  0  0  0
    0.7650    2.5134    3.1706 H   0  0  0  0  0  0  0  0  0  0  0  0
    3.9488    0.8176    2.1013 H   0  0  0  0  0  0  0  0  0  0  0  0
    4.0221   -0.7790    0.1919 H   0  0  0  0  0  0  0  0  0  0  0  0
    2.8233   -2.0251   -1.5793 H   0  0  0  0  0  0  0  0  0  0  0  0
    0.7190   -2.5482   -2.7499 H   0  0  0  0  0  0  0  0  0  0  0  0
   -1.7181   -2.1898   -3.0155 H   0  0  0  0  0  0  0  0  0  0  0  0
   -3.7913   -1.0053   -2.3041 H   0  0  0  0  0  0  0  0  0  0  0  0
   -4.7648    0.1016    0.0372 H   0  0  0  0  0  0  0  0  0  0  0  0
   -3.7851    1.5124    0.4917 H   0  0  0  0  0  0  0  0  0  0  0  0
   -4.4452    1.3676   -1.1522 H   0  0  0  0  0  0  0  0  0  0  0  0
  1  2  1  0
  2  3  1  0
  3  4  2  0
  4  5  1  0
  5  6  1  0
  6  7  2  0
  7  8  1  0
  8  9  2  0
  9 10  1  0
 10 11  2  0
 11 12  1  0
 11 13  1  0
 13 14  2  0
 14 15  1  0
 15 16  1  0
 16  2  2  0
 15  5  2  0
 14  8  1  0
  1 17  1  0
  1 18  1  0
  1 19  1  0
  3 20  1  0
  4 21  1  0
  6 22  1  0
  7 23  1  0
  9 24  1  0
 10 25  1  0
 12 26  1  0
 12 27  1  0
 12 28  1  0
M  END
$$$$
