
     RDKit          3D

 25 27  0  0  0  0  0  0  0  0999 V2000
    2.6187   -1.7869    1.6540 C   0  0  0  0  0  0  0  0  0  0  0  0
    1.9846   -1.3030    0.3900 C   0  0  0  0  0  0  0  0  0  0  0  0
    2.5423   -1.5516   -0.8422 C   0  0  0  0  0  0  0  0  0  0  0  0
    1.9278   -1.0749   -2.0101 C   0  0  0  0  0  0  0  0  0  0  0  0
    0.8000   -0.3638   -2.0013 N   0  0  0  0  0  0  0  0  0  0  0  0
    0.2377   -0.0999   -0.8240 C   0  0  0  0  0  0  0  0  0  0  0  0
    0.7776   -0.5502    0.4278 C   0  0  0  0  0  0  0  0  0  0  0  0
    0.1062   -0.2322    1.6397 C   0  0  0  0  0  0  0  0  0  0  0  0
   -1.0316    0.5034    1.6402 C   0  0  0  0  0  0  0  0  0  0  0  0
   -1.6060    0.9808    0.4293 C   0  0  0  0  0  0  0  0  0  0  0  0
   -2.7914    1.7499    0.3956 C   0  0  0  0  0  0  0  0  0  0  0  0
   -3.2861    2.1751   -0.8099 C   0  0  0  0  0  0  0  0  0  0  0  0
   -2.5934    1.8360   -1.9863 C   0  0  0  0  0  0  0  0  0  0  0  0
   -1.4639    1.1082   -1.9964 N   0  0  0  0  0  0  0  0  0  0  0  0
   -0.9831    0.6845   -0.8194 C   0  0  0  0  0  0  0  0  0  0  0  0
    3.5376   -2.3428    1.4241 H   0  0  0  0  0  0  0  0  0  0  0  0
    1.9544   -2.4472    2.2094 H   0  0  0  0  0  0  0  0  0  0  0  0
    2.8805   -0.9551    2.3101 H   0  0  0  0  0  0  0  0  0  0  0  0
    3.4623   -2.1192   -0.9108 H   0  0  0  0  0  0  0  0  0  0  0  0
    2.3674   -1.2767   -2.9769 H   0  0  0  0  0  0  0  0  0  0  0  0
    0.5220   -0.5889    2.5755 H   0  0  0  0  0  0  0  0  0  0  0  0
   -1.5321    0.7415    2.5728 H   0  0  0  0  0  0  0  0  0  0  0  0
   -3.2837    1.9874    1.3219 H   0  0  0  0  0  0  0  0  0  0  0  0
   -4.1878    2.7620   -0.8707 H   0  0  0  0  0  0  0  0  0  0  0  0
   -2.9599    2.1634   -2.9425 H   0  0  0  0  0  0  0  0  0  0  0  0
  1  2  1  0
  2  3  1  0
  3  4  2  0
  4  5  1  0
  5  6  2  0
  6  7  1  0
  7  8  1  0
  8  9  2  0
  9 10  1  0
 10 11  1  0
 11 12  2  0
 12 13  1  0
 13 14  2  0
 14 15  1  0
  7  2  2  0
 15 10  2  0
 15  6  1  0
  1 16  1  0
  1 17  1  0
  1 18  1  0
  3 19  1  0
  4 20  1  0
  8 21  1  0
  9 22  1  0
 11 23  1  0
 12 24  1  0
 13 25  1  0
M  END
$$$$

     RDKit          3D

 25 27  0  0  0  0  0  0  0  0999 V2000
   -3.0322    1.1614   -1.4922 C   0  0  0  0  0  0  0  0  0  0  0  0
   -1.5469    0.9915   -1.5583 C   0  0  0  0  0  0  0  0  0  0  0  0
   -0.8082    1.4264   -2.6327 C   0  0  0  0  0  0  0  0  0  0  0  0
    0.5837    1.2560   -2.6509 C   0  0  0  0  0  0  0  0  0  0  0  0
    1.2619    0.6702   -1.6615 N   0  0  0  0  0  0  0  0  0  0  0  0
    0.5784    0.2268   -0.6123 C   0  0  0  0  0  0  0  0  0  0  0  0
   -0.8474    0.3581   -0.4915 C   0  0  0  0  0  0  0  0  0  0  0  0
   -1.5029   -0.1384    0.6681 C   0  0  0  0  0  0  0  0  0  0  0  0
   -0.8130   -0.7385    1.6653 C   0  0  0  0  0  0  0  0  0  0  0  0
    0.5990   -0.8849    1.6046 C   0  0  0  0  0  0  0  0  0  0  0  0
    1.3481   -1.4816    2.6413 C   0  0  0  0  0  0  0  0  0  0  0  0
    2.7055   -1.6112    2.5056 C   0  0  0  0  0  0  0  0  0  0  0  0
    3.3167   -1.1336    1.3330 C   0  0  0  0  0  0  0  0  0  0  0  0
    2.6411   -0.5477    0.3307 N   0  0  0  0  0  0  0  0  0  0  0  0
    1.3142   -0.4152    0.4627 C   0  0  0  0  0  0  0  0  0  0  0  0
   -3.3290    1.7193   -0.6046 H   0  0  0  0  0  0  0  0  0  0  0  0
   -3.5387    0.1954   -1.4535 H   0  0  0  0  0  0  0  0  0  0  0  0
   -3.3968    1.7067   -2.3719 H   0  0  0  0  0  0  0  0  0  0  0  0
   -1.3024    1.9125   -3.4646 H   0  0  0  0  0  0  0  0  0  0  0  0
    1.1636    1.6108   -3.4917 H   0  0  0  0  0  0  0  0  0  0  0  0
   -2.5799   -0.0295    0.7414 H   0  0  0  0  0  0  0  0  0  0  0  0
   -1.3289   -1.1192    2.5418 H   0  0  0  0  0  0  0  0  0  0  0  0
    0.8318   -1.8358    3.5157 H   0  0  0  0  0  0  0  0  0  0  0  0
    3.3039   -2.0667    3.2753 H   0  0  0  0  0  0  0  0  0  0  0  0
    4.3784   -1.2330    1.2002 H   0  0  0  0  0  0  0  0  0  0  0  0
  1  2  1  0
  2  3  1  0
  3  4  2  0
  4  5  1  0
  5  6  2  0
  6  7  1  0
  7  8  1  0
  8  9  2  0
  9 10  1  0
 10 11  1  0
 11 12  2  0
 12 13  1  0
 13 14  2  0
 14 15  1  0
  7  2  2  0
 15 10  2  0
 15  6  1  0
  1 16  1  0
  1 17  1  0
  1 18  1  0
  3 19  1  0
  4 20  1  0
  8 21  1  0
  9 22  1  0
 11 23  1  0
 12 24  1  0
 13 25  1  0
M  END
$$$$

     RDKit          3D

 25 27  0  0  0  0  0  0  0  0999 V2000
   -0.3571   -3.5250   -0.5110 C   0  0  0  0  0  0  0  0  0  0  0  0
    0.2484   -2.2169   -0.9095 C   0  0  0  0  0  0  0  0  0  0  0  0
    1.1149   -2.1140   -1.9706 C   0  0  0  0  0  0  0  0  0  0  0  0
    1.6705   -0.8736   -2.3172 C   0  0  0  0  0  0  0  0  0  0  0  0
    1.3996    0.2572   -1.6649 N   0  0  0  0  0  0  0  0  0  0  0  0
    0.5608    0.1969   -0.6345 C   0  0  0  0  0  0  0  0  0  0  0  0
   -0.0564   -1.0250   -0.1932 C   0  0  0  0  0  0  0  0  0  0  0  0
   -0.9337   -1.0021    0.9249 C   0  0  0  0  0  0  0  0  0  0  0  0
   -1.2108    0.1498    1.5799 C   0  0  0  0  0  0  0  0  0  0  0  0
   -0.6361    1.3870    1.1811 C   0  0  0  0  0  0  0  0  0  0  0  0
   -0.9148    2.6031    1.8433 C   0  0  0  0  0  0  0  0  0  0  0  0
   -0.3279    3.7613    1.4053 C   0  0  0  0  0  0  0  0  0  0  0  0
    0.5366    3.7023    0.2982 C   0  0  0  0  0  0  0  0  0  0  0  0
    0.8317    2.5651   -0.3529 N   0  0  0  0  0  0  0  0  0  0  0  0
    0.2564    1.4314    0.0690 C   0  0  0  0  0  0  0  0  0  0  0  0
   -0.1077   -3.7841    0.5182 H   0  0  0  0  0  0  0  0  0  0  0  0
    0.0100   -4.3280   -1.1640 H   0  0  0  0  0  0  0  0  0  0  0  0
   -1.4424   -3.5033   -0.5904 H   0  0  0  0  0  0  0  0  0  0  0  0
    1.3706   -2.9964   -2.5445 H   0  0  0  0  0  0  0  0  0  0  0  0
    2.3523   -0.8003   -3.1529 H   0  0  0  0  0  0  0  0  0  0  0  0
   -1.3815   -1.9339    1.2520 H   0  0  0  0  0  0  0  0  0  0  0  0
   -1.8877    0.1527    2.4271 H   0  0  0  0  0  0  0  0  0  0  0  0
   -1.5817    2.5942    2.6868 H   0  0  0  0  0  0  0  0  0  0  0  0
   -0.5211    4.7047    1.8858 H   0  0  0  0  0  0  0  0  0  0  0  0
    1.0067    4.5968   -0.0658 H   0  0  0  0  0  0  0  0  0  0  0  0
  1  2  1  0
  2  3  1  0
  3  4  2  0
  4  5  1  0
  5  6  2  0
  6  7  1  0
  7  8  1  0
  8  9  2  0
  9 10  1  0
 10 11  1  0
 11 12  2  0
 12 13  1  0
 13 14  2  0
 14 15  1  0
  7  2  2  0
 15 10  2  0
 15  6  1  0
  1 16  1  0
  1 17  1  0
  1 18  1  0
  3 19  1  0
  4 20  1  0
  8 21  1  0
  9 22  1  0
 11 23  1  0
 12 24  1  0
 13 25  1  0
M  END
$$$$

     RDKit          3D

 25 27  0  0  0  0  0  0  0  0999 V2000
    2.3118   -2.7357    0.0243 C   0  0  0  0  0  0  0  0  0  0  0  0
    1.9125   -1.3763    0.5048 C   0  0  0  0  0  0  0  0  0  0  0  0
    2.6863   -0.6677    1.3919 C   0  0  0  0  0  0  0  0  0  0  0  0
    2.2775    0.5989    1.8336 C   0  0  0  0  0  0  0  0  0  0  0  0
    1.1465    1.1856    1.4362 N   0  0  0  0  0  0  0  0  0  0  0  0
    0.3774    0.5358    0.5705 C   0  0  0  0  0  0  0  0  0  0  0  0
    0.7033   -0.7671    0.0584 C   0  0  0  0  0  0  0  0  0  0  0  0
   -0.1735   -1.3941   -0.8654 C   0  0  0  0  0  0  0  0  0  0  0  0
   -1.3074   -0.7861   -1.2886 C   0  0  0  0  0  0  0  0  0  0  0  0
   -1.6724    0.5073   -0.8239 C   0  0  0  0  0  0  0  0  0  0  0  0
   -2.8378    1.1755   -1.2585 C   0  0  0  0  0  0  0  0  0  0  0  0
   -3.1312    2.4184   -0.7636 C   0  0  0  0  0  0  0  0  0  0  0  0
   -2.2532    2.9981    0.1684 C   0  0  0  0  0  0  0  0  0  0  0  0
   -1.1357    2.3964    0.6053 N   0  0  0  0  0  0  0  0  0  0  0  0
   -0.8419    1.1835    0.1182 C   0  0  0  0  0  0  0  0  0  0  0  0
    1.5605   -3.4860    0.2775 H   0  0  0  0  0  0  0  0  0  0  0  0
    2.4453   -2.7576   -1.0559 H   0  0  0  0  0  0  0  0  0  0  0  0
    3.2604   -3.0389    0.4863 H   0  0  0  0  0  0  0  0  0  0  0  0
    3.6181   -1.0883    1.7496 H   0  0  0  0  0  0  0  0  0  0  0  0
    2.8887    1.1527    2.5305 H   0  0  0  0  0  0  0  0  0  0  0  0
    0.0786   -2.3883   -1.2225 H   0  0  0  0  0  0  0  0  0  0  0  0
   -1.9616   -1.2817   -1.9967 H   0  0  0  0  0  0  0  0  0  0  0  0
   -3.4797    0.6894   -1.9701 H   0  0  0  0  0  0  0  0  0  0  0  0
   -4.0114    2.9526   -1.0776 H   0  0  0  0  0  0  0  0  0  0  0  0
   -2.4613    3.9735    0.5675 H   0  0  0  0  0  0  0  0  0  0  0  0
  1  2  1  0
  2  3  1  0
  3  4  2  0
  4  5  1  0
  5  6  2  0
  6  7  1  0
  7  8  1  0
  8  9  2  0
  9 10  1  0
 10 11  1  0
 11 12  2  0
 12 13  1  0
 13 14  2  0
 14 15  1  0
  7  2  2  0
 15 10  2  0
 15  6  1  0
  1 16  1  0
  1 17  1  0
  1 18  1  0
  3 19  1  0
  4 20  1  0
  8 21  1  0
  9 22  1  0
 11 23  1  0
 12 24  1  0
 13 25  1  0
M  END
$$$$

     RDKit          3D

 25 27  0  0  0  0  0  0  0  0999 V2000
    0.6393   -0.5706    3.4709 C   0  0  0  0  0  0  0  0  0  0  0  0
   -0.1972   -0.8154    2.2563 C   0  0  0  0  0  0  0  0  0  0  0  0
   -1.2971   -1.6400    2.2874 C   0  0  0  0  0  0  0  0  0  0  0  0
   -2.0620   -1.8444    1.1296 C   0  0  0  0  0  0  0  0  0  0  0  0
   -1.7759   -1.2772   -0.0433 N   0  0  0  0  0  0  0  0  0  0  0  0
   -0.7102   -0.4863   -0.1124 C   0  0  0  0  0  0  0  0  0  0  0  0
    0.1309   -0.1983    1.0168 C   0  0  0  0  0  0  0  0  0  0  0  0
    1.2433    0.6746    0.8622 C   0  0  0  0  0  0  0  0  0  0  0  0
    1.5336    1.2337   -0.3355 C   0  0  0  0  0  0  0  0  0  0  0  0
    0.7411    0.9775   -1.4877 C   0  0  0  0  0  0  0  0  0  0  0  0
    1.0209    1.5506   -2.7473 C   0  0  0  0  0  0  0  0  0  0  0  0
    0.2002    1.2792   -3.8112 C   0  0  0  0  0  0  0  0  0  0  0  0
   -0.8987    0.4224   -3.6174 C   0  0  0  0  0  0  0  0  0  0  0  0
   -1.1856   -0.1578   -2.4388 N   0  0  0  0  0  0  0  0  0  0  0  0
   -0.3948    0.1195   -1.3939 C   0  0  0  0  0  0  0  0  0  0  0  0
    1.6731   -0.8815    3.3068 H   0  0  0  0  0  0  0  0  0  0  0  0
    0.6552    0.4844    3.7398 H   0  0  0  0  0  0  0  0  0  0  0  0
    0.2414   -1.1349    4.3249 H   0  0  0  0  0  0  0  0  0  0  0  0
   -1.5740   -2.1340    3.2106 H   0  0  0  0  0  0  0  0  0  0  0  0
   -2.9298   -2.4877    1.1563 H   0  0  0  0  0  0  0  0  0  0  0  0
    1.8614    0.8870    1.7293 H   0  0  0  0  0  0  0  0  0  0  0  0
    2.3850    1.8986   -0.4426 H   0  0  0  0  0  0  0  0  0  0  0  0
    1.8770    2.1950   -2.8455 H   0  0  0  0  0  0  0  0  0  0  0  0
    0.3828    1.7074   -4.7813 H   0  0  0  0  0  0  0  0  0  0  0  0
   -1.5598    0.1983   -4.4339 H   0  0  0  0  0  0  0  0  0  0  0  0
  1  2  1  0
  2  3  1  0
  3  4  2  0
  4  5  1  0
  5  6  2  0
  6  7  1  0
  7  8  1  0
  8  9  2  0
  9 10  1  0
 10 11  1  0
 11 12  2  0
 12 13  1  0
 13 14  2  0
 14 15  1  0
  7  2  2  0
 15 10  2  0
 15  6  1  0
  1 16  1  0
  1 17  1  0
  1 18  1  0
  3 19  1  0
  4 20  1  0
  8 21  1  0
  9 22  1  0
 11 23  1  0
 12 24  1  0
 13 25  1  0
M  END
$$$$

     RDKit          3D

 25 27  0  0  0  0  0  0  0  0999 V2000
   -2.2569   -0.2241    2.7659 C   0  0  0  0  0  0  0  0  0  0  0  0
   -0.9983    0.3170    2.1680 C   0  0  0  0  0  0  0  0  0  0  0  0
   -0.1553    1.1384    2.8767 C   0  0  0  0  0  0  0  0  0  0  0  0
    1.0251    1.6173    2.2901 C   0  0  0  0  0  0  0  0  0  0  0  0
    1.3992    1.3180    1.0449 N   0  0  0  0  0  0  0  0  0  0  0  0
    0.6073    0.5247    0.3298 C   0  0  0  0  0  0  0  0  0  0  0  0
   -0.6291   -0.0096    0.8316 C   0  0  0  0  0  0  0  0  0  0  0  0
   -1.4253   -0.8390   -0.0024 C   0  0  0  0  0  0  0  0  0  0  0  0
   -1.0405   -1.1452   -1.2638 C   0  0  0  0  0  0  0  0  0  0  0  0
    0.1765   -0.6507   -1.8091 C   0  0  0  0  0  0  0  0  0  0  0  0
    0.6050   -0.9525   -3.1208 C   0  0  0  0  0  0  0  0  0  0  0  0
    1.7928   -0.4426   -3.5783 C   0  0  0  0  0  0  0  0  0  0  0  0
    2.5587    0.3646   -2.7185 C   0  0  0  0  0  0  0  0  0  0  0  0
    2.1868    0.6735   -1.4664 N   0  0  0  0  0  0  0  0  0  0  0  0
    1.0225    0.1830   -1.0189 C   0  0  0  0  0  0  0  0  0  0  0  0
   -2.3723    0.1440    3.7951 H   0  0  0  0  0  0  0  0  0  0  0  0
   -2.2489   -1.3125    2.7964 H   0  0  0  0  0  0  0  0  0  0  0  0
   -3.1355    0.0828    2.1960 H   0  0  0  0  0  0  0  0  0  0  0  0
   -0.3995    1.4111    3.8954 H   0  0  0  0  0  0  0  0  0  0  0  0
    1.6857    2.2634    2.8517 H   0  0  0  0  0  0  0  0  0  0  0  0
   -2.3622   -1.2257    0.3897 H   0  0  0  0  0  0  0  0  0  0  0  0
   -1.6615   -1.7809   -1.8858 H   0  0  0  0  0  0  0  0  0  0  0  0
   -0.0155   -1.5753   -3.7396 H   0  0  0  0  0  0  0  0  0  0  0  0
    2.1452   -0.6499   -4.5742 H   0  0  0  0  0  0  0  0  0  0  0  0
    3.4960    0.7702   -3.0533 H   0  0  0  0  0  0  0  0  0  0  0  0
  1  2  1  0
  2  3  1  0
  3  4  2  0
  4  5  1  0
  5  6  2  0
  6  7  1  0
  7  8  1  0
  8  9  2  0
  9 10  1  0
 10 11  1  0
 11 12  2  0
 12 13  1  0
 13 14  2  0
 14 15  1  0
  7  2  2  0
 15 10  2  0
 15  6  1  0
  1 16  1  0
  1 17  1  0
  1 18  1  0
  3 19  1  0
  4 20  1  0
  8 21  1  0
  9 22  1  0
 11 23  1  0
 12 24  1  0
 13 25  1  0
M  END
$$$$

     RDKit          3D

 25 27  0  0  0  0  0  0  0  0999 V2000
   -3.0159    0.4017   -1.8814 C   0  0  0  0  0  0  0  0  0  0  0  0
   -1.5512    0.6597   -1.7189 C   0  0  0  0  0  0  0  0  0  0  0  0
   -0.8358    1.3857   -2.6414 C   0  0  0  0  0  0  0  0  0  0  0  0
    0.5402    1.5943   -2.4666 C   0  0  0  0  0  0  0  0  0  0  0  0
    1.2254    1.1294   -1.4205 N   0  0  0  0  0  0  0  0  0  0  0  0
    0.5622    0.4303   -0.5055 C   0  0  0  0  0  0  0  0  0  0  0  0
   -0.8438    0.1478   -0.5949 C   0  0  0  0  0  0  0  0  0  0  0  0
   -1.4732   -0.6229    0.4217 C   0  0  0  0  0  0  0  0  0  0  0  0
   -0.7732   -1.0959    1.4789 C   0  0  0  0  0  0  0  0  0  0  0  0
    0.6165   -0.8370    1.6242 C   0  0  0  0  0  0  0  0  0  0  0  0
    1.3675   -1.3074    2.7238 C   0  0  0  0  0  0  0  0  0  0  0  0
    2.7021   -1.0067    2.8072 C   0  0  0  0  0  0  0  0  0  0  0  0
    3.2893   -0.2417    1.7830 C   0  0  0  0  0  0  0  0  0  0  0  0
    2.6106    0.2142    0.7187 N   0  0  0  0  0  0  0  0  0  0  0  0
    1.3042   -0.0682    0.6388 C   0  0  0  0  0  0  0  0  0  0  0  0
   -3.3830    0.8651   -2.8061 H   0  0  0  0  0  0  0  0  0  0  0  0
   -3.5865    0.8134   -1.0485 H   0  0  0  0  0  0  0  0  0  0  0  0
   -3.2281   -0.6680   -1.9268 H   0  0  0  0  0  0  0  0  0  0  0  0
   -1.3361    1.7980   -3.5089 H   0  0  0  0  0  0  0  0  0  0  0  0
    1.1016    2.1535   -3.2026 H   0  0  0  0  0  0  0  0  0  0  0  0
   -2.5355   -0.8321    0.3373 H   0  0  0  0  0  0  0  0  0  0  0  0
   -1.2663   -1.6816    2.2489 H   0  0  0  0  0  0  0  0  0  0  0  0
    0.8747   -1.8955    3.4772 H   0  0  0  0  0  0  0  0  0  0  0  0
    3.3005   -1.3414    3.6372 H   0  0  0  0  0  0  0  0  0  0  0  0
    4.3338    0.0053    1.8252 H   0  0  0  0  0  0  0  0  0  0  0  0
  1  2  1  0
  2  3  1  0
  3  4  2  0
  4  5  1  0
  5  6  2  0
  6  7  1  0
  7  8  1  0
  8  9  2  0
  9 10  1  0
 10 11  1  0
 11 12  2  0
 12 13  1  0
 13 14  2  0
 14 15  1  0
  7  2  2  0
 15 10  2  0
 15  6  1  0
  1 16  1  0
  1 17  1  0
  1 18  1  0
  3 19  1  0
  4 20  1  0
  8 21  1  0
  9 22  1  0
 11 23  1  0
 12 24  1  0
 13 25  1  0
M  END
$$$$

     RDKit          3D

 25 27  0  0  0  0  0  0  0  0999 V2000
    0.8939   -0.8571    3.3569 C   0  0  0  0  0  0  0  0  0  0  0  0
    0.8826   -1.1891    1.8979 C   0  0  0  0  0  0  0  0  0  0  0  0
    1.4345   -2.3515    1.4165 C   0  0  0  0  0  0  0  0  0  0  0  0
    1.4044   -2.6375    0.0442 C   0  0  0  0  0  0  0  0  0  0  0  0
    0.8595   -1.8228   -0.8599 N   0  0  0  0  0  0  0  0  0  0  0  0
    0.3151   -0.6884   -0.4287 C   0  0  0  0  0  0  0  0  0  0  0  0
    0.2944   -0.3006    0.9547 C   0  0  0  0  0  0  0  0  0  0  0  0
   -0.3022    0.9337    1.3288 C   0  0  0  0  0  0  0  0  0  0  0  0
   -0.8512    1.7588    0.4079 C   0  0  0  0  0  0  0  0  0  0  0  0
   -0.8676    1.4220   -0.9720 C   0  0  0  0  0  0  0  0  0  0  0  0
   -1.4419    2.2615   -1.9513 C   0  0  0  0  0  0  0  0  0  0  0  0
   -1.4314    1.8699   -3.2645 C   0  0  0  0  0  0  0  0  0  0  0  0
   -0.8474    0.6345   -3.5975 C   0  0  0  0  0  0  0  0  0  0  0  0
   -0.2878   -0.1904   -2.6969 N   0  0  0  0  0  0  0  0  0  0  0  0
   -0.2935    0.1916   -1.4121 C   0  0  0  0  0  0  0  0  0  0  0  0
    1.4092   -1.6452    3.9232 H   0  0  0  0  0  0  0  0  0  0  0  0
   -0.1188   -0.7671    3.7514 H   0  0  0  0  0  0  0  0  0  0  0  0
    1.4061    0.0869    3.5447 H   0  0  0  0  0  0  0  0  0  0  0  0
    1.8917   -3.0537    2.1026 H   0  0  0  0  0  0  0  0  0  0  0  0
    1.8353   -3.5556   -0.3292 H   0  0  0  0  0  0  0  0  0  0  0  0
   -0.3062    1.2141    2.3773 H   0  0  0  0  0  0  0  0  0  0  0  0
   -1.2979    2.7013    0.7069 H   0  0  0  0  0  0  0  0  0  0  0  0
   -1.8766    3.1967   -1.6443 H   0  0  0  0  0  0  0  0  0  0  0  0
   -1.8615    2.4861   -4.0358 H   0  0  0  0  0  0  0  0  0  0  0  0
   -0.8426    0.3018   -4.6206 H   0  0  0  0  0  0  0  0  0  0  0  0
  1  2  1  0
  2  3  1  0
  3  4  2  0
  4  5  1  0
  5  6  2  0
  6  7  1  0
  7  8  1  0
  8  9  2  0
  9 10  1  0
 10 11  1  0
 11 12  2  0
 12 13  1  0
 13 14  2  0
 14 15  1  0
  7  2  2  0
 15 10  2  0
 15  6  1  0
  1 16  1  0
  1 17  1  0
  1 18  1  0
  3 19  1  0
  4 20  1  0
  8 21  1  0
  9 22  1  0
 11 23  1  0
 12 24  1  0
 13 25  1  0
M  END
$$$$

     RDKit          3D

 25 27  0  0  0  0  0  0  0  0999 V2000
    2.4972   -2.4155   -0.8518 C   0  0  0  0  0  0  0  0  0  0  0  0
    1.9116   -1.4590    0.1381 C   0  0  0  0  0  0  0  0  0  0  0  0
    2.4645   -1.2740    1.3818 C   0  0  0  0  0  0  0  0  0  0  0  0
    1.8919   -0.3660    2.2849 C   0  0  0  0  0  0  0  0  0  0  0  0
    0.8053    0.3563    2.0071 N   0  0  0  0  0  0  0  0  0  0  0  0
    0.2449    0.2045    0.8130 C   0  0  0  0  0  0  0  0  0  0  0  0
    0.7502   -0.7006   -0.1829 C   0  0  0  0  0  0  0  0  0  0  0  0
    0.0887   -0.8063   -1.4368 C   0  0  0  0  0  0  0  0  0  0  0  0
   -1.0118   -0.0696   -1.7185 C   0  0  0  0  0  0  0  0  0  0  0  0
   -1.5519    0.8464   -0.7756 C   0  0  0  0  0  0  0  0  0  0  0  0
   -2.6941    1.6323   -1.0463 C   0  0  0  0  0  0  0  0  0  0  0  0
   -3.1649    2.4892   -0.0860 C   0  0  0  0  0  0  0  0  0  0  0  0
   -2.4865    2.5656    1.1439 C   0  0  0  0  0  0  0  0  0  0  0  0
   -1.3940    1.8394    1.4359 N   0  0  0  0  0  0  0  0  0  0  0  0
   -0.9323    0.9982    0.5021 C   0  0  0  0  0  0  0  0  0  0  0  0
    1.7736   -3.1764   -1.1439 H   0  0  0  0  0  0  0  0  0  0  0  0
    2.8165   -1.9004   -1.7576 H   0  0  0  0  0  0  0  0  0  0  0  0
    3.3726   -2.9204   -0.4240 H   0  0  0  0  0  0  0  0  0  0  0  0
    3.3483   -1.8309    1.6660 H   0  0  0  0  0  0  0  0  0  0  0  0
    2.3290   -0.2237    3.2624 H   0  0  0  0  0  0  0  0  0  0  0  0
    0.4839   -1.4925   -2.1790 H   0  0  0  0  0  0  0  0  0  0  0  0
   -1.5021   -0.1664   -2.6805 H   0  0  0  0  0  0  0  0  0  0  0  0
   -3.1726    1.5375   -2.0051 H   0  0  0  0  0  0  0  0  0  0  0  0
   -4.0346    3.0987   -0.2578 H   0  0  0  0  0  0  0  0  0  0  0  0
   -2.8333    3.2337    1.9106 H   0  0  0  0  0  0  0  0  0  0  0  0
  1  2  1  0
  2  3  1  0
  3  4  2  0
  4  5  1  0
  5  6  2  0
  6  7  1  0
  7  8  1  0
  8  9  2  0
  9 10  1  0
 10 11  1  0
 11 12  2  0
 12 13  1  0
 13 14  2  0
 14 15  1  0
  7  2  2  0
 15 10  2  0
 15  6  1  0
  1 16  1  0
  1 17  1  0
  1 18  1  0
  3 19  1  0
  4 20  1  0
  8 21  1  0
  9 22  1  0
 11 23  1  0
 12 24  1  0
 13 25  1  0
M  END
$$$$

     RDKit          3D

 25 27  0  0  0  0  0  0  0  0999 V2000
    2.8287   -1.2753   -1.7744 C   0  0  0  0  0  0  0  0  0  0  0  0
    2.2703   -0.3887   -0.7082 C   0  0  0  0  0  0  0  0  0  0  0  0
    3.0773    0.3927    0.0832 C   0  0  0  0  0  0  0  0  0  0  0  0
    2.5153    1.2154    1.0707 C   0  0  0  0  0  0  0  0  0  0  0  0
    1.2020    1.2963    1.2974 N   0  0  0  0  0  0  0  0  0  0  0  0
    0.3914    0.5471    0.5585 C   0  0  0  0  0  0  0  0  0  0  0  0
    0.8650   -0.3255   -0.4819 C   0  0  0  0  0  0  0  0  0  0  0  0
   -0.0663   -1.0848   -1.2410 C   0  0  0  0  0  0  0  0  0  0  0  0
   -1.3970   -1.0057   -1.0061 C   0  0  0  0  0  0  0  0  0  0  0  0
   -1.9200   -0.1750    0.0219 C   0  0  0  0  0  0  0  0  0  0  0  0
   -3.3004   -0.0930    0.3053 C   0  0  0  0  0  0  0  0  0  0  0  0
   -3.7371    0.7301    1.3088 C   0  0  0  0  0  0  0  0  0  0  0  0
   -2.7915    1.4832    2.0260 C   0  0  0  0  0  0  0  0  0  0  0  0
   -1.4701    1.4293    1.7898 N   0  0  0  0  0  0  0  0  0  0  0  0
   -1.0371    0.6203    0.8133 C   0  0  0  0  0  0  0  0  0  0  0  0
    2.5487   -2.3180   -1.6126 H   0  0  0  0  0  0  0  0  0  0  0  0
    3.9249   -1.2129   -1.7854 H   0  0  0  0  0  0  0  0  0  0  0  0
    2.4636   -0.9900   -2.7604 H   0  0  0  0  0  0  0  0  0  0  0  0
    4.1508    0.3727   -0.0566 H   0  0  0  0  0  0  0  0  0  0  0  0
    3.1511    1.8282    1.6916 H   0  0  0  0  0  0  0  0  0  0  0  0
    0.3110   -1.7398   -2.0202 H   0  0  0  0  0  0  0  0  0  0  0  0
   -2.0989   -1.5783   -1.6026 H   0  0  0  0  0  0  0  0  0  0  0  0
   -3.9874   -0.6812   -0.2763 H   0  0  0  0  0  0  0  0  0  0  0  0
   -4.7829    0.8091    1.5493 H   0  0  0  0  0  0  0  0  0  0  0  0
   -3.1113    2.1440    2.8098 H   0  0  0  0  0  0  0  0  0  0  0  0
  1  2  1  0
  2  3  1  0
  3  4  2  0
  4  5  1  0
  5  6  2  0
  6  7  1  0
  7  8  1  0
  8  9  2  0
  9 10  1  0
 10 11  1  0
 11 12  2  0
 12 13  1  0
 13 14  2  0
 14 15  1  0
  7  2  2  0
 15 10  2  0
 15  6  1  0
  1 16  1  0
  1 17  1  0
  1 18  1  0
  3 19  1  0
  4 20  1  0
  8 21  1  0
  9 22  1  0
 11 23  1  0
 12 24  1  0
 13 25  1  0
M  END
$$$$

     RDKit          3D

 25 27  0  0  0  0  0  0  0  0999 V2000
   -1.6029   -2.8065   -1.5342 C   0  0  0  0  0  0  0  0  0  0  0  0
   -1.1808   -1.3723   -1.5880 C   0  0  0  0  0  0  0  0  0  0  0  0
   -1.4653   -0.5730   -2.6688 C   0  0  0  0  0  0  0  0  0  0  0  0
   -1.0708    0.7716   -2.6794 C   0  0  0  0  0  0  0  0  0  0  0  0
   -0.4182    1.3467   -1.6707 N   0  0  0  0  0  0  0  0  0  0  0  0
   -0.1176    0.6030   -0.6111 C   0  0  0  0  0  0  0  0  0  0  0  0
   -0.4657   -0.7877   -0.5059 C   0  0  0  0  0  0  0  0  0  0  0  0
   -0.0861   -1.5203    0.6513 C   0  0  0  0  0  0  0  0  0  0  0  0
    0.5936   -0.9312    1.6639 C   0  0  0  0  0  0  0  0  0  0  0  0
    0.9440    0.4481    1.6228 C   0  0  0  0  0  0  0  0  0  0  0  0
    1.6317    1.0938    2.6748 C   0  0  0  0  0  0  0  0  0  0  0  0
    1.9370    2.4263    2.5671 C   0  0  0  0  0  0  0  0  0  0  0  0
    1.5548    3.1152    1.4030 C   0  0  0  0  0  0  0  0  0  0  0  0
    0.9014    2.5360    0.3828 N   0  0  0  0  0  0  0  0  0  0  0  0
    0.5954    1.2362    0.4855 C   0  0  0  0  0  0  0  0  0  0  0  0
   -2.1137   -3.0879   -2.4639 H   0  0  0  0  0  0  0  0  0  0  0  0
   -0.7459   -3.4689   -1.4078 H   0  0  0  0  0  0  0  0  0  0  0  0
   -2.2857   -2.9903   -0.7072 H   0  0  0  0  0  0  0  0  0  0  0  0
   -1.9972   -0.9854   -3.5163 H   0  0  0  0  0  0  0  0  0  0  0  0
   -1.2891    1.3985   -3.5321 H   0  0  0  0  0  0  0  0  0  0  0  0
   -0.3466   -2.5740    0.7073 H   0  0  0  0  0  0  0  0  0  0  0  0
    0.8826   -1.5054    2.5379 H   0  0  0  0  0  0  0  0  0  0  0  0
    1.9051    0.5218    3.5429 H   0  0  0  0  0  0  0  0  0  0  0  0
    2.4522    2.9489    3.3539 H   0  0  0  0  0  0  0  0  0  0  0  0
    1.7880    4.1569    1.2924 H   0  0  0  0  0  0  0  0  0  0  0  0
  1  2  1  0
  2  3  1  0
  3  4  2  0
  4  5  1  0
  5  6  2  0
  6  7  1  0
  7  8  1  0
  8  9  2  0
  9 10  1  0
 10 11  1  0
 11 12  2  0
 12 13  1  0
 13 14  2  0
 14 15  1  0
  7  2  2  0
 15 10  2  0
 15  6  1  0
  1 16  1  0
  1 17  1  0
  1 18  1  0
  3 19  1  0
  4 20  1  0
  8 21  1  0
  9 22  1  0
 11 23  1  0
 12 24  1  0
 13 25  1  0
M  END
$$$$

     RDKit          3D

 25 27  0  0  0  0  0  0  0  0999 V2000
    2.7496   -1.5815    1.6508 C   0  0  0  0  0  0  0  0  0  0  0  0
    2.1808   -0.3907    0.9484 C   0  0  0  0  0  0  0  0  0  0  0  0
    2.9267    0.7391    0.7077 C   0  0  0  0  0  0  0  0  0  0  0  0
    2.3599    1.8346    0.0386 C   0  0  0  0  0  0  0  0  0  0  0  0
    1.1009    1.8530   -0.4054 N   0  0  0  0  0  0  0  0  0  0  0  0
    0.3515    0.7770   -0.1900 C   0  0  0  0  0  0  0  0  0  0  0  0
    0.8303   -0.3919    0.4970 C   0  0  0  0  0  0  0  0  0  0  0  0
   -0.0409   -1.4993    0.6887 C   0  0  0  0  0  0  0  0  0  0  0  0
   -1.3088   -1.4860    0.2193 C   0  0  0  0  0  0  0  0  0  0  0  0
   -1.8326   -0.3631   -0.4750 C   0  0  0  0  0  0  0  0  0  0  0  0
   -3.1511   -0.3275   -0.9800 C   0  0  0  0  0  0  0  0  0  0  0  0
   -3.5919    0.7891   -1.6405 C   0  0  0  0  0  0  0  0  0  0  0  0
   -2.7071    1.8700   -1.8033 C   0  0  0  0  0  0  0  0  0  0  0  0
   -1.4443    1.8690   -1.3452 N   0  0  0  0  0  0  0  0  0  0  0  0
   -1.0115    0.7826   -0.6929 C   0  0  0  0  0  0  0  0  0  0  0  0
    3.8080   -1.4157    1.8877 H   0  0  0  0  0  0  0  0  0  0  0  0
    2.2228   -1.7888    2.5840 H   0  0  0  0  0  0  0  0  0  0  0  0
    2.6821   -2.4777    1.0330 H   0  0  0  0  0  0  0  0  0  0  0  0
    3.9608    0.7805    1.0290 H   0  0  0  0  0  0  0  0  0  0  0  0
    2.9495    2.7212   -0.1466 H   0  0  0  0  0  0  0  0  0  0  0  0
    0.3293   -2.3704    1.2205 H   0  0  0  0  0  0  0  0  0  0  0  0
   -1.9568   -2.3449    0.3585 H   0  0  0  0  0  0  0  0  0  0  0  0
   -3.7863   -1.1817   -0.8318 H   0  0  0  0  0  0  0  0  0  0  0  0
   -4.5934    0.8484   -2.0316 H   0  0  0  0  0  0  0  0  0  0  0  0
   -3.0275    2.7548   -2.3210 H   0  0  0  0  0  0  0  0  0  0  0  0
  1  2  1  0
  2  3  1  0
  3  4  2  0
  4  5  1  0
  5  6  2  0
  6  7  1  0
  7  8  1  0
  8  9  2  0
  9 10  1  0
 10 11  1  0
 11 12  2  0
 12 13  1  0
 13 14  2  0
 14 15  1  0
  7  2  2  0
 15 10  2  0
 15  6  1  0
  1 16  1  0
  1 17  1  0
  1 18  1  0
  3 19  1  0
  4 20  1  0
  8 21  1  0
  9 22  1  0
 11 23  1  0
 12 24  1  0
 13 25  1  0
M  END
$$$$
