
     RDKit          3D

 18 19  0  0  0  0  0  0  0  0999 V2000
   -1.1858    1.2911    2.4327 C   0  0  0  0  0  0  0  0  0  0  0  0
   -1.7612    1.5213    1.1843 C   0  0  0  0  0  0  0  0  0  0  0  0
   -1.2265    0.9179    0.0573 C   0  0  0  0  0  0  0  0  0  0  0  0
   -0.0927    0.0932    0.2240 C   0  0  0  0  0  0  0  0  0  0  0  0
    0.5336   -0.5793   -0.9249 C   0  0  0  0  0  0  0  0  0  0  0  0
    1.8084   -1.1186   -0.9907 C   0  0  0  0  0  0  0  0  0  0  0  0
    1.9028   -1.6301   -2.3101 C   0  0  0  0  0  0  0  0  0  0  0  0
    0.7708   -1.4351   -2.9780 N   0  0  0  0  0  0  0  0  0  0  0  0
   -0.0393   -0.7925   -2.1287 N   0  0  0  0  0  0  0  0  0  0  0  0
    0.4767   -0.1209    1.4280 N   0  0  0  0  0  0  0  0  0  0  0  0
   -0.0595    0.4532    2.4927 C   0  0  0  0  0  0  0  0  0  0  0  0
   -1.5739    1.7360    3.3291 H   0  0  0  0  0  0  0  0  0  0  0  0
   -2.6181    2.1609    1.0819 H   0  0  0  0  0  0  0  0  0  0  0  0
   -1.6417    1.0863   -0.9203 H   0  0  0  0  0  0  0  0  0  0  0  0
    2.5296   -1.1377   -0.2281 H   0  0  0  0  0  0  0  0  0  0  0  0
    2.7347   -2.1195   -2.7784 H   0  0  0  0  0  0  0  0  0  0  0  0
   -0.9724   -0.5761   -2.4105 H   0  0  0  0  0  0  0  0  0  0  0  0
    0.4145    0.2501    3.4397 H   0  0  0  0  0  0  0  0  0  0  0  0
  1  2  2  0
  2  3  1  0
  3  4  2  0
  4  5  1  0
  5  6  2  0
  6  7  1  0
  7  8  2  0
  8  9  1  0
  4 10  1  0
 10 11  2  0
 11  1  1  0
  9  5  1  0
  1 12  1  0
  2 13  1  0
  3 14  1  0
  6 15  1  0
  7 16  1  0
  9 17  1  0
 11 18  1  0
M  END
$$$$

     RDKit          3D

 18 19  0  0  0  0  0  0  0  0999 V2000
    2.1882   -0.7345   -1.9136 C   0  0  0  0  0  0  0  0  0  0  0  0
    2.4529    0.0817   -0.8140 C   0  0  0  0  0  0  0  0  0  0  0  0
    1.4278    0.4069    0.0559 C   0  0  0  0  0  0  0  0  0  0  0  0
    0.1450   -0.1049   -0.2047 C   0  0  0  0  0  0  0  0  0  0  0  0
   -0.9876    0.2050    0.6834 C   0  0  0  0  0  0  0  0  0  0  0  0
   -1.0776    0.9441    1.8549 C   0  0  0  0  0  0  0  0  0  0  0  0
   -2.4437    0.8539    2.2076 C   0  0  0  0  0  0  0  0  0  0  0  0
   -3.1251    0.1230    1.3216 N   0  0  0  0  0  0  0  0  0  0  0  0
   -2.2275   -0.2647    0.4183 N   0  0  0  0  0  0  0  0  0  0  0  0
   -0.1250   -0.8977   -1.2728 N   0  0  0  0  0  0  0  0  0  0  0  0
    0.8756   -1.1939   -2.0957 C   0  0  0  0  0  0  0  0  0  0  0  0
    2.9578   -1.0078   -2.6125 H   0  0  0  0  0  0  0  0  0  0  0  0
    3.4426    0.4589   -0.6323 H   0  0  0  0  0  0  0  0  0  0  0  0
    1.5916    1.0403    0.9090 H   0  0  0  0  0  0  0  0  0  0  0  0
   -0.3016    1.4505    2.3577 H   0  0  0  0  0  0  0  0  0  0  0  0
   -2.9431    1.2931    3.0492 H   0  0  0  0  0  0  0  0  0  0  0  0
   -2.4796   -0.8288   -0.3751 H   0  0  0  0  0  0  0  0  0  0  0  0
    0.6293   -1.8251   -2.9369 H   0  0  0  0  0  0  0  0  0  0  0  0
  1  2  2  0
  2  3  1  0
  3  4  2  0
  4  5  1  0
  5  6  2  0
  6  7  1  0
  7  8  2  0
  8  9  1  0
  4 10  1  0
 10 11  2  0
 11  1  1  0
  9  5  1  0
  1 12  1  0
  2 13  1  0
  3 14  1  0
  6 15  1  0
  7 16  1  0
  9 17  1  0
 11 18  1  0
M  END
$$$$

     RDKit          3D

 18 19  0  0  0  0  0  0  0  0999 V2000
    1.3454    2.0415    1.7442 C   0  0  0  0  0  0  0  0  0  0  0  0
    0.8637    2.4230    0.4939 C   0  0  0  0  0  0  0  0  0  0  0  0
    0.2370    1.4896   -0.3202 C   0  0  0  0  0  0  0  0  0  0  0  0
    0.1159    0.1644    0.1595 C   0  0  0  0  0  0  0  0  0  0  0  0
   -0.5343   -0.8899   -0.6420 C   0  0  0  0  0  0  0  0  0  0  0  0
   -0.7417   -2.2115   -0.2779 C   0  0  0  0  0  0  0  0  0  0  0  0
   -1.3862   -2.7845   -1.4038 C   0  0  0  0  0  0  0  0  0  0  0  0
   -1.5663   -1.8804   -2.3616 N   0  0  0  0  0  0  0  0  0  0  0  0
   -1.0463   -0.7466   -1.8845 N   0  0  0  0  0  0  0  0  0  0  0  0
    0.5862   -0.2069    1.3700 N   0  0  0  0  0  0  0  0  0  0  0  0
    1.1803    0.6995    2.1293 C   0  0  0  0  0  0  0  0  0  0  0  0
    1.8309    2.7365    2.4022 H   0  0  0  0  0  0  0  0  0  0  0  0
    0.9644    3.4357    0.1512 H   0  0  0  0  0  0  0  0  0  0  0  0
   -0.1501    1.7578   -1.2847 H   0  0  0  0  0  0  0  0  0  0  0  0
   -0.4672   -2.6713    0.6257 H   0  0  0  0  0  0  0  0  0  0  0  0
   -1.7196   -3.7942   -1.5389 H   0  0  0  0  0  0  0  0  0  0  0  0
   -1.0550    0.0736   -2.4487 H   0  0  0  0  0  0  0  0  0  0  0  0
    1.5428    0.3636    3.0861 H   0  0  0  0  0  0  0  0  0  0  0  0
  1  2  2  0
  2  3  1  0
  3  4  2  0
  4  5  1  0
  5  6  2  0
  6  7  1  0
  7  8  2  0
  8  9  1  0
  4 10  1  0
 10 11  2  0
 11  1  1  0
  9  5  1  0
  1 12  1  0
  2 13  1  0
  3 14  1  0
  6 15  1  0
  7 16  1  0
  9 17  1  0
 11 18  1  0
M  END
$$$$

     RDKit          3D

 18 19  0  0  0  0  0  0  0  0999 V2000
    0.9761    2.3455   -1.5927 C   0  0  0  0  0  0  0  0  0  0  0  0
   -0.1323    2.4673   -0.7556 C   0  0  0  0  0  0  0  0  0  0  0  0
   -0.5638    1.3709   -0.0320 C   0  0  0  0  0  0  0  0  0  0  0  0
    0.1387    0.1620   -0.1717 C   0  0  0  0  0  0  0  0  0  0  0  0
   -0.2712   -1.0364    0.5784 C   0  0  0  0  0  0  0  0  0  0  0  0
   -1.2912   -1.2616    1.4940 C   0  0  0  0  0  0  0  0  0  0  0  0
   -1.1449   -2.6255    1.8362 C   0  0  0  0  0  0  0  0  0  0  0  0
   -0.1240   -3.1818    1.1798 N   0  0  0  0  0  0  0  0  0  0  0  0
    0.3896   -2.2053    0.4321 N   0  0  0  0  0  0  0  0  0  0  0  0
    1.2137    0.0294   -0.9891 N   0  0  0  0  0  0  0  0  0  0  0  0
    1.6115    1.0975   -1.6719 C   0  0  0  0  0  0  0  0  0  0  0  0
    1.3431    3.1768   -2.1661 H   0  0  0  0  0  0  0  0  0  0  0  0
   -0.6536    3.4025   -0.6634 H   0  0  0  0  0  0  0  0  0  0  0  0
   -1.4142    1.4255    0.6224 H   0  0  0  0  0  0  0  0  0  0  0  0
   -1.9992   -0.5698    1.8561 H   0  0  0  0  0  0  0  0  0  0  0  0
   -1.7457   -3.2098    2.5081 H   0  0  0  0  0  0  0  0  0  0  0  0
    1.1961   -2.3476   -0.1533 H   0  0  0  0  0  0  0  0  0  0  0  0
    2.4713    0.9605   -2.3113 H   0  0  0  0  0  0  0  0  0  0  0  0
  1  2  2  0
  2  3  1  0
  3  4  2  0
  4  5  1  0
  5  6  2  0
  6  7  1  0
  7  8  2  0
  8  9  1  0
  4 10  1  0
 10 11  2  0
 11  1  1  0
  9  5  1  0
  1 12  1  0
  2 13  1  0
  3 14  1  0
  6 15  1  0
  7 16  1  0
  9 17  1  0
 11 18  1  0
M  END
$$$$

     RDKit          3D

 18 19  0  0  0  0  0  0  0  0999 V2000
   -1.1343   -1.7389    2.1661 C   0  0  0  0  0  0  0  0  0  0  0  0
   -1.9973   -0.9802    1.3780 C   0  0  0  0  0  0  0  0  0  0  0  0
   -1.4858   -0.1739    0.3717 C   0  0  0  0  0  0  0  0  0  0  0  0
   -0.0838   -0.1533    0.1896 C   0  0  0  0  0  0  0  0  0  0  0  0
    0.5449    0.6836   -0.8479 C   0  0  0  0  0  0  0  0  0  0  0  0
    1.8691    0.6571   -1.2599 C   0  0  0  0  0  0  0  0  0  0  0  0
    1.9400    1.6539   -2.2661 C   0  0  0  0  0  0  0  0  0  0  0  0
    0.7555    2.2305   -2.4504 N   0  0  0  0  0  0  0  0  0  0  0  0
   -0.0691    1.6377   -1.5814 N   0  0  0  0  0  0  0  0  0  0  0  0
    0.7543   -0.8935    0.9476 N   0  0  0  0  0  0  0  0  0  0  0  0
    0.2430   -1.6513    1.9036 C   0  0  0  0  0  0  0  0  0  0  0  0
   -1.4930   -2.3747    2.9530 H   0  0  0  0  0  0  0  0  0  0  0  0
   -3.0584   -1.0113    1.5383 H   0  0  0  0  0  0  0  0  0  0  0  0
   -2.1312    0.4100   -0.2598 H   0  0  0  0  0  0  0  0  0  0  0  0
    2.6375    0.0382   -0.8991 H   0  0  0  0  0  0  0  0  0  0  0  0
    2.7851    1.9506   -2.8567 H   0  0  0  0  0  0  0  0  0  0  0  0
   -1.0186    1.9321   -1.5238 H   0  0  0  0  0  0  0  0  0  0  0  0
    0.9420   -2.2166    2.4972 H   0  0  0  0  0  0  0  0  0  0  0  0
  1  2  2  0
  2  3  1  0
  3  4  2  0
  4  5  1  0
  5  6  2  0
  6  7  1  0
  7  8  2  0
  8  9  1  0
  4 10  1  0
 10 11  2  0
 11  1  1  0
  9  5  1  0
  1 12  1  0
  2 13  1  0
  3 14  1  0
  6 15  1  0
  7 16  1  0
  9 17  1  0
 11 18  1  0
M  END
$$$$

     RDKit          3D

 18 19  0  0  0  0  0  0  0  0999 V2000
   -2.0567   -2.1584   -0.3221 C   0  0  0  0  0  0  0  0  0  0  0  0
   -2.3955   -0.8202   -0.5228 C   0  0  0  0  0  0  0  0  0  0  0  0
   -1.4317    0.1595   -0.3702 C   0  0  0  0  0  0  0  0  0  0  0  0
   -0.1336   -0.2376   -0.0069 C   0  0  0  0  0  0  0  0  0  0  0  0
    0.9394    0.7556    0.1728 C   0  0  0  0  0  0  0  0  0  0  0  0
    0.9633    2.1373    0.0363 C   0  0  0  0  0  0  0  0  0  0  0  0
    2.2987    2.4859    0.3441 C   0  0  0  0  0  0  0  0  0  0  0  0
    3.0231    1.4060    0.6467 N   0  0  0  0  0  0  0  0  0  0  0  0
    2.1866    0.3764    0.5312 N   0  0  0  0  0  0  0  0  0  0  0  0
    0.2064   -1.5365    0.1917 N   0  0  0  0  0  0  0  0  0  0  0  0
   -0.7346   -2.4601    0.0345 C   0  0  0  0  0  0  0  0  0  0  0  0
   -2.7790   -2.9452   -0.4339 H   0  0  0  0  0  0  0  0  0  0  0  0
   -3.3949   -0.5413   -0.8012 H   0  0  0  0  0  0  0  0  0  0  0  0
   -1.6556    1.1999   -0.5204 H   0  0  0  0  0  0  0  0  0  0  0  0
    0.1679    2.7709   -0.2434 H   0  0  0  0  0  0  0  0  0  0  0  0
    2.7449    3.4619    0.3628 H   0  0  0  0  0  0  0  0  0  0  0  0
    2.4815   -0.5706    0.7035 H   0  0  0  0  0  0  0  0  0  0  0  0
   -0.4300   -3.4836    0.1972 H   0  0  0  0  0  0  0  0  0  0  0  0
  1  2  2  0
  2  3  1  0
  3  4  2  0
  4  5  1  0
  5  6  2  0
  6  7  1  0
  7  8  2  0
  8  9  1  0
  4 10  1  0
 10 11  2  0
 11  1  1  0
  9  5  1  0
  1 12  1  0
  2 13  1  0
  3 14  1  0
  6 15  1  0
  7 16  1  0
  9 17  1  0
 11 18  1  0
M  END
$$$$

     RDKit          3D

 18 19  0  0  0  0  0  0  0  0999 V2000
   -1.8911   -0.4953   -2.2780 C   0  0  0  0  0  0  0  0  0  0  0  0
   -2.3045    0.2893   -1.2024 C   0  0  0  0  0  0  0  0  0  0  0  0
   -1.4325    0.5382   -0.1521 C   0  0  0  0  0  0  0  0  0  0  0  0
   -0.1424   -0.0385   -0.2137 C   0  0  0  0  0  0  0  0  0  0  0  0
    0.8326    0.1538    0.8750 C   0  0  0  0  0  0  0  0  0  0  0  0
    2.1142   -0.3712    0.9597 C   0  0  0  0  0  0  0  0  0  0  0  0
    2.6040    0.1089    2.2020 C   0  0  0  0  0  0  0  0  0  0  0  0
    1.6983    0.8694    2.8091 N   0  0  0  0  0  0  0  0  0  0  0  0
    0.6355    0.8762    1.9984 N   0  0  0  0  0  0  0  0  0  0  0  0
    0.2624   -0.7931   -1.2582 N   0  0  0  0  0  0  0  0  0  0  0  0
   -0.5836   -1.0113   -2.2514 C   0  0  0  0  0  0  0  0  0  0  0  0
   -2.5379   -0.7130   -3.1060 H   0  0  0  0  0  0  0  0  0  0  0  0
   -3.2926    0.7078   -1.1727 H   0  0  0  0  0  0  0  0  0  0  0  0
   -1.7210    1.1480    0.6841 H   0  0  0  0  0  0  0  0  0  0  0  0
    2.5957   -0.9879    0.2593 H   0  0  0  0  0  0  0  0  0  0  0  0
    3.5619   -0.0605    2.6552 H   0  0  0  0  0  0  0  0  0  0  0  0
   -0.1734    1.3953    2.2597 H   0  0  0  0  0  0  0  0  0  0  0  0
   -0.2255   -1.6161   -3.0679 H   0  0  0  0  0  0  0  0  0  0  0  0
  1  2  2  0
  2  3  1  0
  3  4  2  0
  4  5  1  0
  5  6  2  0
  6  7  1  0
  7  8  2  0
  8  9  1  0
  4 10  1  0
 10 11  2  0
 11  1  1  0
  9  5  1  0
  1 12  1  0
  2 13  1  0
  3 14  1  0
  6 15  1  0
  7 16  1  0
  9 17  1  0
 11 18  1  0
M  END
$$$$

     RDKit          3D

 18 19  0  0  0  0  0  0  0  0999 V2000
   -2.4668   -1.5311   -0.7651 C   0  0  0  0  0  0  0  0  0  0  0  0
   -1.2143   -2.1083   -0.9691 C   0  0  0  0  0  0  0  0  0  0  0  0
   -0.0671   -1.4095   -0.6218 C   0  0  0  0  0  0  0  0  0  0  0  0
   -0.2205   -0.1146   -0.0732 C   0  0  0  0  0  0  0  0  0  0  0  0
    0.9438    0.6889    0.3400 C   0  0  0  0  0  0  0  0  0  0  0  0
    0.9525    2.0160    0.7458 C   0  0  0  0  0  0  0  0  0  0  0  0
    2.3152    2.2825    1.0344 C   0  0  0  0  0  0  0  0  0  0  0  0
    3.0632    1.2036    0.8353 N   0  0  0  0  0  0  0  0  0  0  0  0
    2.2202    0.2580    0.4049 N   0  0  0  0  0  0  0  0  0  0  0  0
   -1.4311    0.4533    0.1060 N   0  0  0  0  0  0  0  0  0  0  0  0
   -2.5120   -0.2348   -0.2217 C   0  0  0  0  0  0  0  0  0  0  0  0
   -3.3761   -2.0436   -1.0144 H   0  0  0  0  0  0  0  0  0  0  0  0
   -1.1221   -3.0921   -1.3903 H   0  0  0  0  0  0  0  0  0  0  0  0
    0.9112   -1.8274   -0.7738 H   0  0  0  0  0  0  0  0  0  0  0  0
    0.1332    2.6685    0.8133 H   0  0  0  0  0  0  0  0  0  0  0  0
    2.7595    3.1959    1.3812 H   0  0  0  0  0  0  0  0  0  0  0  0
    2.5692   -0.6567    0.2254 H   0  0  0  0  0  0  0  0  0  0  0  0
   -3.4580    0.2516   -0.0568 H   0  0  0  0  0  0  0  0  0  0  0  0
  1  2  2  0
  2  3  1  0
  3  4  2  0
  4  5  1  0
  5  6  2  0
  6  7  1  0
  7  8  2  0
  8  9  1  0
  4 10  1  0
 10 11  2  0
 11  1  1  0
  9  5  1  0
  1 12  1  0
  2 13  1  0
  3 14  1  0
  6 15  1  0
  7 16  1  0
  9 17  1  0
 11 18  1  0
M  END
$$$$

     RDKit          3D

 18 19  0  0  0  0  0  0  0  0999 V2000
   -1.2283   -2.5397   -1.0153 C   0  0  0  0  0  0  0  0  0  0  0  0
   -1.0773   -2.3215    0.3535 C   0  0  0  0  0  0  0  0  0  0  0  0
   -0.5058   -1.1424    0.7961 C   0  0  0  0  0  0  0  0  0  0  0  0
   -0.0932   -0.2009   -0.1625 C   0  0  0  0  0  0  0  0  0  0  0  0
    0.5190    1.0724    0.2501 C   0  0  0  0  0  0  0  0  0  0  0  0
    0.7709    1.6210    1.5011 C   0  0  0  0  0  0  0  0  0  0  0  0
    1.3661    2.8691    1.2115 C   0  0  0  0  0  0  0  0  0  0  0  0
    1.4725    3.0594   -0.1051 N   0  0  0  0  0  0  0  0  0  0  0  0
    0.9510    1.9675   -0.6644 N   0  0  0  0  0  0  0  0  0  0  0  0
   -0.2333   -0.4028   -1.4974 N   0  0  0  0  0  0  0  0  0  0  0  0
   -0.7862   -1.5425   -1.8978 C   0  0  0  0  0  0  0  0  0  0  0  0
   -1.6628   -3.4454   -1.3974 H   0  0  0  0  0  0  0  0  0  0  0  0
   -1.4056   -3.0550    1.0678 H   0  0  0  0  0  0  0  0  0  0  0  0
   -0.3714   -0.9393    1.8419 H   0  0  0  0  0  0  0  0  0  0  0  0
    0.5537    1.2028    2.4437 H   0  0  0  0  0  0  0  0  0  0  0  0
    1.7143    3.6140    1.9020 H   0  0  0  0  0  0  0  0  0  0  0  0
    0.8974    1.8596   -1.6619 H   0  0  0  0  0  0  0  0  0  0  0  0
   -0.8812   -1.6764   -2.9658 H   0  0  0  0  0  0  0  0  0  0  0  0
  1  2  2  0
  2  3  1  0
  3  4  2  0
  4  5  1  0
  5  6  2  0
  6  7  1  0
  7  8  2  0
  8  9  1  0
  4 10  1  0
 10 11  2  0
 11  1  1  0
  9  5  1  0
  1 12  1  0
  2 13  1  0
  3 14  1  0
  6 15  1  0
  7 16  1  0
  9 17  1  0
 11 18  1  0
M  END
$$$$

     RDKit          3D

 18 19  0  0  0  0  0  0  0  0999 V2000
    2.7267   -1.2080   -0.3621 C   0  0  0  0  0  0  0  0  0  0  0  0
    1.7301   -1.4613   -1.3027 C   0  0  0  0  0  0  0  0  0  0  0  0
    0.4694   -0.9041   -1.1434 C   0  0  0  0  0  0  0  0  0  0  0  0
    0.2443   -0.0880   -0.0099 C   0  0  0  0  0  0  0  0  0  0  0  0
   -1.0720    0.5321    0.2274 C   0  0  0  0  0  0  0  0  0  0  0  0
   -1.4327    1.3689    1.2720 C   0  0  0  0  0  0  0  0  0  0  0  0
   -2.7994    1.6595    1.0259 C   0  0  0  0  0  0  0  0  0  0  0  0
   -3.2231    1.0593   -0.0813 N   0  0  0  0  0  0  0  0  0  0  0  0
   -2.1697    0.3822   -0.5454 N   0  0  0  0  0  0  0  0  0  0  0  0
    1.2082    0.1634    0.9017 N   0  0  0  0  0  0  0  0  0  0  0  0
    2.4037   -0.3835    0.7305 C   0  0  0  0  0  0  0  0  0  0  0  0
    3.7126   -1.6250   -0.4506 H   0  0  0  0  0  0  0  0  0  0  0  0
    1.9229   -2.0807   -2.1584 H   0  0  0  0  0  0  0  0  0  0  0  0
   -0.3163   -1.0879   -1.8528 H   0  0  0  0  0  0  0  0  0  0  0  0
   -0.8243    1.7006    2.0608 H   0  0  0  0  0  0  0  0  0  0  0  0
   -3.4644    2.2754    1.5983 H   0  0  0  0  0  0  0  0  0  0  0  0
   -2.2635   -0.1399   -1.3874 H   0  0  0  0  0  0  0  0  0  0  0  0
    3.1473   -0.1630    1.4775 H   0  0  0  0  0  0  0  0  0  0  0  0
  1  2  2  0
  2  3  1  0
  3  4  2  0
  4  5  1  0
  5  6  2  0
  6  7  1  0
  7  8  2  0
  8  9  1  0
  4 10  1  0
 10 11  2  0
 11  1  1  0
  9  5  1  0
  1 12  1  0
  2 13  1  0
  3 14  1  0
  6 15  1  0
  7 16  1  0
  9 17  1  0
 11 18  1  0
M  END
$$$$

     RDKit          3D

 18 19  0  0  0  0  0  0  0  0999 V2000
    1.6200    1.5971    1.9562 C   0  0  0  0  0  0  0  0  0  0  0  0
    2.1104    1.3870    0.6693 C   0  0  0  0  0  0  0  0  0  0  0  0
    1.3719    0.6441   -0.2394 C   0  0  0  0  0  0  0  0  0  0  0  0
    0.1258    0.1284    0.1873 C   0  0  0  0  0  0  0  0  0  0  0  0
   -0.7204   -0.6686   -0.7193 C   0  0  0  0  0  0  0  0  0  0  0  0
   -2.0238   -1.0913   -0.5070 C   0  0  0  0  0  0  0  0  0  0  0  0
   -2.3548   -1.8016   -1.6897 C   0  0  0  0  0  0  0  0  0  0  0  0
   -1.3354   -1.8093   -2.5432 N   0  0  0  0  0  0  0  0  0  0  0  0
   -0.3593   -1.1249   -1.9385 N   0  0  0  0  0  0  0  0  0  0  0  0
   -0.3542    0.3353    1.4330 N   0  0  0  0  0  0  0  0  0  0  0  0
    0.3755    1.0329    2.2877 C   0  0  0  0  0  0  0  0  0  0  0  0
    2.1625    2.1695    2.6838 H   0  0  0  0  0  0  0  0  0  0  0  0
    3.0559    1.7977    0.3663 H   0  0  0  0  0  0  0  0  0  0  0  0
    1.7312    0.4655   -1.2364 H   0  0  0  0  0  0  0  0  0  0  0  0
   -2.6159   -0.9283    0.3454 H   0  0  0  0  0  0  0  0  0  0  0  0
   -3.2816   -2.2773   -1.9443 H   0  0  0  0  0  0  0  0  0  0  0  0
    0.5241   -1.0272   -2.3866 H   0  0  0  0  0  0  0  0  0  0  0  0
   -0.0320    1.1711    3.2756 H   0  0  0  0  0  0  0  0  0  0  0  0
  1  2  2  0
  2  3  1  0
  3  4  2  0
  4  5  1  0
  5  6  2  0
  6  7  1  0
  7  8  2  0
  8  9  1  0
  4 10  1  0
 10 11  2  0
 11  1  1  0
  9  5  1  0
  1 12  1  0
  2 13  1  0
  3 14  1  0
  6 15  1  0
  7 16  1  0
  9 17  1  0
 11 18  1  0
M  END
$$$$

     RDKit          3D

 18 19  0  0  0  0  0  0  0  0999 V2000
    0.4161    1.2680   -2.6877 C   0  0  0  0  0  0  0  0  0  0  0  0
    1.4758    1.1156   -1.7953 C   0  0  0  0  0  0  0  0  0  0  0  0
    1.2517    0.5247   -0.5662 C   0  0  0  0  0  0  0  0  0  0  0  0
   -0.0538    0.1015   -0.2569 C   0  0  0  0  0  0  0  0  0  0  0  0
   -0.3421   -0.5287    1.0430 C   0  0  0  0  0  0  0  0  0  0  0  0
    0.4861   -0.8517    2.1088 C   0  0  0  0  0  0  0  0  0  0  0  0
   -0.3862   -1.4383    3.0525 C   0  0  0  0  0  0  0  0  0  0  0  0
   -1.6396   -1.4629    2.6016 N   0  0  0  0  0  0  0  0  0  0  0  0
   -1.5901   -0.9122    1.3883 N   0  0  0  0  0  0  0  0  0  0  0  0
   -1.0929    0.2455   -1.1153 N   0  0  0  0  0  0  0  0  0  0  0  0
   -0.8511    0.8143   -2.2931 C   0  0  0  0  0  0  0  0  0  0  0  0
    0.5502    1.7253   -3.6505 H   0  0  0  0  0  0  0  0  0  0  0  0
    2.4654    1.4485   -2.0508 H   0  0  0  0  0  0  0  0  0  0  0  0
    2.0426    0.3921    0.1481 H   0  0  0  0  0  0  0  0  0  0  0  0
    1.5272   -0.7108    2.1833 H   0  0  0  0  0  0  0  0  0  0  0  0
   -0.1460   -1.8285    4.0231 H   0  0  0  0  0  0  0  0  0  0  0  0
   -2.4135   -0.8237    0.8191 H   0  0  0  0  0  0  0  0  0  0  0  0
   -1.6996    0.9211   -2.9519 H   0  0  0  0  0  0  0  0  0  0  0  0
  1  2  2  0
  2  3  1  0
  3  4  2  0
  4  5  1  0
  5  6  2  0
  6  7  1  0
  7  8  2  0
  8  9  1  0
  4 10  1  0
 10 11  2  0
 11  1  1  0
  9  5  1  0
  1 12  1  0
  2 13  1  0
  3 14  1  0
  6 15  1  0
  7 16  1  0
  9 17  1  0
 11 18  1  0
M  END
$$$$
