
     RDKit          3D

 26 27  0  0  0  0  0  0  0  0999 V2000
    1.9227   -1.7401   -3.3126 C   0  0  0  0  0  0  0  0  0  0  0  0
    0.7849   -1.0258   -2.6608 C   0  0  0  0  0  0  0  0  0  0  0  0
   -0.3386   -0.6282   -3.3816 C   0  0  0  0  0  0  0  0  0  0  0  0
   -1.3636    0.0449   -2.7304 C   0  0  0  0  0  0  0  0  0  0  0  0
   -1.2492    0.3047   -1.3749 C   0  0  0  0  0  0  0  0  0  0  0  0
   -0.0924   -0.1255   -0.7255 C   0  0  0  0  0  0  0  0  0  0  0  0
    0.0846    0.1224    0.7262 C   0  0  0  0  0  0  0  0  0  0  0  0
    1.2364   -0.3217    1.3781 C   0  0  0  0  0  0  0  0  0  0  0  0
    1.3565   -0.0593    2.7326 C   0  0  0  0  0  0  0  0  0  0  0  0
    0.3373    0.6205    3.3840 C   0  0  0  0  0  0  0  0  0  0  0  0
   -0.7842    1.0230    2.6631 C   0  0  0  0  0  0  0  0  0  0  0  0
   -1.9103    1.7589    3.3100 C   0  0  0  0  0  0  0  0  0  0  0  0
   -0.9018    0.7752    1.3466 N   0  0  0  0  0  0  0  0  0  0  0  0
    0.9014   -0.7680   -1.3474 N   0  0  0  0  0  0  0  0  0  0  0  0
    1.6141   -2.1907   -4.2631 H   0  0  0  0  0  0  0  0  0  0  0  0
    2.3027   -2.5316   -2.6683 H   0  0  0  0  0  0  0  0  0  0  0  0
    2.7445   -1.0521   -3.5120 H   0  0  0  0  0  0  0  0  0  0  0  0
   -0.4013   -0.8531   -4.4432 H   0  0  0  0  0  0  0  0  0  0  0  0
   -2.2481    0.3672   -3.2666 H   0  0  0  0  0  0  0  0  0  0  0  0
   -2.0245    0.8195   -0.8318 H   0  0  0  0  0  0  0  0  0  0  0  0
    1.9990   -0.8539    0.8371 H   0  0  0  0  0  0  0  0  0  0  0  0
    2.2411   -0.3830    3.2695 H   0  0  0  0  0  0  0  0  0  0  0  0
    0.4014    0.8408    4.4470 H   0  0  0  0  0  0  0  0  0  0  0  0
   -2.0022    2.7607    2.8895 H   0  0  0  0  0  0  0  0  0  0  0  0
   -1.7559    1.8523    4.3920 H   0  0  0  0  0  0  0  0  0  0  0  0
   -2.8543    1.2428    3.1424 H   0  0  0  0  0  0  0  0  0  0  0  0
  1  2  1  0
  2  3  2  0
  3  4  1  0
  4  5  2  0
  5  6  1  0
  6  7  1  0
  7  8  1  0
  8  9  2  0
  9 10  1  0
 10 11  2  0
 11 12  1  0
 11 13  1  0
  6 14  2  0
 14  2  1  0
 13  7  2  0
  1 15  1  0
  1 16  1  0
  1 17  1  0
  3 18  1  0
  4 19  1  0
  5 20  1  0
  8 21  1  0
  9 22  1  0
 10 23  1  0
 12 24  1  0
 12 25  1  0
 12 26  1  0
M  END
$$$$

     RDKit          3D

 26 27  0  0  0  0  0  0  0  0999 V2000
   -0.0383    3.2273    2.6950 C   0  0  0  0  0  0  0  0  0  0  0  0
   -0.7090    2.1906    1.8550 C   0  0  0  0  0  0  0  0  0  0  0  0
   -2.0949    2.0446    1.8433 C   0  0  0  0  0  0  0  0  0  0  0  0
   -2.6677    1.0474    1.0645 C   0  0  0  0  0  0  0  0  0  0  0  0
   -1.8491    0.2191    0.3153 C   0  0  0  0  0  0  0  0  0  0  0  0
   -0.4721    0.4298    0.3814 C   0  0  0  0  0  0  0  0  0  0  0  0
    0.4560   -0.4268   -0.3980 C   0  0  0  0  0  0  0  0  0  0  0  0
    1.8329   -0.2159   -0.3172 C   0  0  0  0  0  0  0  0  0  0  0  0
    2.6608   -1.0432   -1.0559 C   0  0  0  0  0  0  0  0  0  0  0  0
    2.0976   -2.0385   -1.8400 C   0  0  0  0  0  0  0  0  0  0  0  0
    0.7132   -2.1843   -1.8681 C   0  0  0  0  0  0  0  0  0  0  0  0
    0.0526   -3.2335   -2.6970 C   0  0  0  0  0  0  0  0  0  0  0  0
   -0.0941   -1.3814   -1.1513 N   0  0  0  0  0  0  0  0  0  0  0  0
    0.0870    1.3898    1.1263 N   0  0  0  0  0  0  0  0  0  0  0  0
    0.8635    3.6018    2.2127 H   0  0  0  0  0  0  0  0  0  0  0  0
    0.2548    2.8052    3.6590 H   0  0  0  0  0  0  0  0  0  0  0  0
   -0.7059    4.0740    2.8847 H   0  0  0  0  0  0  0  0  0  0  0  0
   -2.7097    2.7136    2.4395 H   0  0  0  0  0  0  0  0  0  0  0  0
   -3.7417    0.9086    1.0381 H   0  0  0  0  0  0  0  0  0  0  0  0
   -2.2516   -0.5670   -0.3047 H   0  0  0  0  0  0  0  0  0  0  0  0
    2.2283    0.5686    0.3043 H   0  0  0  0  0  0  0  0  0  0  0  0
    3.7344   -0.9070   -1.0126 H   0  0  0  0  0  0  0  0  0  0  0  0
    2.7206   -2.7047   -2.4312 H   0  0  0  0  0  0  0  0  0  0  0  0
    0.7924   -3.8588   -3.2150 H   0  0  0  0  0  0  0  0  0  0  0  0
   -0.5699   -3.8826   -2.0807 H   0  0  0  0  0  0  0  0  0  0  0  0
   -0.5900   -2.7765   -3.4474 H   0  0  0  0  0  0  0  0  0  0  0  0
  1  2  1  0
  2  3  2  0
  3  4  1  0
  4  5  2  0
  5  6  1  0
  6  7  1  0
  7  8  1  0
  8  9  2  0
  9 10  1  0
 10 11  2  0
 11 12  1  0
 11 13  1  0
  6 14  2  0
 14  2  1  0
 13  7  2  0
  1 15  1  0
  1 16  1  0
  1 17  1  0
  3 18  1  0
  4 19  1  0
  5 20  1  0
  8 21  1  0
  9 22  1  0
 10 23  1  0
 12 24  1  0
 12 25  1  0
 12 26  1  0
M  END
$$$$

     RDKit          3D

 26 27  0  0  0  0  0  0  0  0999 V2000
   -1.6780   -3.7517   -0.9089 C   0  0  0  0  0  0  0  0  0  0  0  0
   -0.9121   -2.8133   -0.0353 C   0  0  0  0  0  0  0  0  0  0  0  0
   -0.4064   -3.2142    1.1993 C   0  0  0  0  0  0  0  0  0  0  0  0
    0.2814   -2.2987    1.9832 C   0  0  0  0  0  0  0  0  0  0  0  0
    0.4494   -1.0049    1.5209 C   0  0  0  0  0  0  0  0  0  0  0  0
   -0.0775   -0.6846    0.2691 C   0  0  0  0  0  0  0  0  0  0  0  0
    0.0934    0.6816   -0.2819 C   0  0  0  0  0  0  0  0  0  0  0  0
   -0.3993    0.9933   -1.5496 C   0  0  0  0  0  0  0  0  0  0  0  0
   -0.2014    2.2779   -2.0247 C   0  0  0  0  0  0  0  0  0  0  0  0
    0.4529    3.2040   -1.2238 C   0  0  0  0  0  0  0  0  0  0  0  0
    0.9017    2.8180    0.0383 C   0  0  0  0  0  0  0  0  0  0  0  0
    1.5935    3.7719    0.9544 C   0  0  0  0  0  0  0  0  0  0  0  0
    0.7279    1.5662    0.4926 N   0  0  0  0  0  0  0  0  0  0  0  0
   -0.7461   -1.5584   -0.4904 N   0  0  0  0  0  0  0  0  0  0  0  0
   -2.7329   -3.4767   -0.9325 H   0  0  0  0  0  0  0  0  0  0  0  0
   -1.3041   -3.7216   -1.9300 H   0  0  0  0  0  0  0  0  0  0  0  0
   -1.6006   -4.7843   -0.5455 H   0  0  0  0  0  0  0  0  0  0  0  0
   -0.5556   -4.2380    1.5324 H   0  0  0  0  0  0  0  0  0  0  0  0
    0.6867   -2.5825    2.9481 H   0  0  0  0  0  0  0  0  0  0  0  0
    0.9699   -0.2621    2.1023 H   0  0  0  0  0  0  0  0  0  0  0  0
   -0.9211    0.2523   -2.1277 H   0  0  0  0  0  0  0  0  0  0  0  0
   -0.5606    2.5470   -3.0116 H   0  0  0  0  0  0  0  0  0  0  0  0
    0.6191    4.2211   -1.5675 H   0  0  0  0  0  0  0  0  0  0  0  0
    1.6090    4.7859    0.5360 H   0  0  0  0  0  0  0  0  0  0  0  0
    2.6200    3.4599    1.1316 H   0  0  0  0  0  0  0  0  0  0  0  0
    1.0911    3.8119    1.9213 H   0  0  0  0  0  0  0  0  0  0  0  0
  1  2  1  0
  2  3  2  0
  3  4  1  0
  4  5  2  0
  5  6  1  0
  6  7  1  0
  7  8  1  0
  8  9  2  0
  9 10  1  0
 10 11  2  0
 11 12  1  0
 11 13  1  0
  6 14  2  0
 14  2  1  0
 13  7  2  0
  1 15  1  0
  1 16  1  0
  1 17  1  0
  3 18  1  0
  4 19  1  0
  5 20  1  0
  8 21  1  0
  9 22  1  0
 10 23  1  0
 12 24  1  0
 12 25  1  0
 12 26  1  0
M  END
$$$$

     RDKit          3D

 26 27  0  0  0  0  0  0  0  0999 V2000
   -1.0183    1.3629    3.8537 C   0  0  0  0  0  0  0  0  0  0  0  0
   -1.3501    0.9444    2.4610 C   0  0  0  0  0  0  0  0  0  0  0  0
   -2.6659    0.9068    2.0058 C   0  0  0  0  0  0  0  0  0  0  0  0
   -2.9222    0.4934    0.7065 C   0  0  0  0  0  0  0  0  0  0  0  0
   -1.8649    0.1265   -0.1082 C   0  0  0  0  0  0  0  0  0  0  0  0
   -0.5761    0.1870    0.4238 C   0  0  0  0  0  0  0  0  0  0  0  0
    0.5908   -0.1994   -0.4077 C   0  0  0  0  0  0  0  0  0  0  0  0
    1.8783   -0.1934    0.1296 C   0  0  0  0  0  0  0  0  0  0  0  0
    2.9276   -0.5623   -0.6967 C   0  0  0  0  0  0  0  0  0  0  0  0
    2.6638   -0.9187   -2.0113 C   0  0  0  0  0  0  0  0  0  0  0  0
    1.3500   -0.8978   -2.4721 C   0  0  0  0  0  0  0  0  0  0  0  0
    1.0063   -1.2870   -3.8704 C   0  0  0  0  0  0  0  0  0  0  0  0
    0.3314   -0.5433   -1.6724 N   0  0  0  0  0  0  0  0  0  0  0  0
   -0.3210    0.5826    1.6743 N   0  0  0  0  0  0  0  0  0  0  0  0
   -0.1506    2.0215    3.8707 H   0  0  0  0  0  0  0  0  0  0  0  0
   -1.8585    1.8888    4.3206 H   0  0  0  0  0  0  0  0  0  0  0  0
   -0.7818    0.4919    4.4672 H   0  0  0  0  0  0  0  0  0  0  0  0
   -3.4737    1.2048    2.6689 H   0  0  0  0  0  0  0  0  0  0  0  0
   -3.9346    0.4552    0.3237 H   0  0  0  0  0  0  0  0  0  0  0  0
   -2.0214   -0.1977   -1.1233 H   0  0  0  0  0  0  0  0  0  0  0  0
    2.0427    0.0917    1.1542 H   0  0  0  0  0  0  0  0  0  0  0  0
    3.9413   -0.5702   -0.3134 H   0  0  0  0  0  0  0  0  0  0  0  0
    3.4662   -1.2084   -2.6834 H   0  0  0  0  0  0  0  0  0  0  0  0
    1.8989   -1.3175   -4.5048 H   0  0  0  0  0  0  0  0  0  0  0  0
    0.2971   -0.5870   -4.3081 H   0  0  0  0  0  0  0  0  0  0  0  0
    0.5445   -2.2745   -3.8879 H   0  0  0  0  0  0  0  0  0  0  0  0
  1  2  1  0
  2  3  2  0
  3  4  1  0
  4  5  2  0
  5  6  1  0
  6  7  1  0
  7  8  1  0
  8  9  2  0
  9 10  1  0
 10 11  2  0
 11 12  1  0
 11 13  1  0
  6 14  2  0
 14  2  1  0
 13  7  2  0
  1 15  1  0
  1 16  1  0
  1 17  1  0
  3 18  1  0
  4 19  1  0
  5 20  1  0
  8 21  1  0
  9 22  1  0
 10 23  1  0
 12 24  1  0
 12 25  1  0
 12 26  1  0
M  END
$$$$

     RDKit          3D

 26 27  0  0  0  0  0  0  0  0999 V2000
   -0.4295   -1.0354   -4.0512 C   0  0  0  0  0  0  0  0  0  0  0  0
    0.1642   -0.2291   -2.9446 C   0  0  0  0  0  0  0  0  0  0  0  0
    1.0927    0.7807   -3.1875 C   0  0  0  0  0  0  0  0  0  0  0  0
    1.6120    1.4986   -2.1183 C   0  0  0  0  0  0  0  0  0  0  0  0
    1.1939    1.1970   -0.8328 C   0  0  0  0  0  0  0  0  0  0  0  0
    0.2632    0.1705   -0.6741 C   0  0  0  0  0  0  0  0  0  0  0  0
   -0.2215   -0.1946    0.6792 C   0  0  0  0  0  0  0  0  0  0  0  0
   -1.0925   -1.2713    0.8409 C   0  0  0  0  0  0  0  0  0  0  0  0
   -1.5183   -1.5727    2.1230 C   0  0  0  0  0  0  0  0  0  0  0  0
   -1.0695   -0.8018    3.1859 C   0  0  0  0  0  0  0  0  0  0  0  0
   -0.2001    0.2583    2.9413 C   0  0  0  0  0  0  0  0  0  0  0  0
    0.3168    1.1206    4.0439 C   0  0  0  0  0  0  0  0  0  0  0  0
    0.2167    0.5535    1.6971 N   0  0  0  0  0  0  0  0  0  0  0  0
   -0.2374   -0.5282   -1.6972 N   0  0  0  0  0  0  0  0  0  0  0  0
   -1.5162   -1.0579   -3.9751 H   0  0  0  0  0  0  0  0  0  0  0  0
   -0.1631   -0.6214   -5.0310 H   0  0  0  0  0  0  0  0  0  0  0  0
   -0.0758   -2.0674   -4.0087 H   0  0  0  0  0  0  0  0  0  0  0  0
    1.3986    0.9976   -4.2083 H   0  0  0  0  0  0  0  0  0  0  0  0
    2.3342    2.2903   -2.2784 H   0  0  0  0  0  0  0  0  0  0  0  0
    1.5667    1.7312    0.0261 H   0  0  0  0  0  0  0  0  0  0  0  0
   -1.4173   -1.8440   -0.0124 H   0  0  0  0  0  0  0  0  0  0  0  0
   -2.1924   -2.4048    2.2857 H   0  0  0  0  0  0  0  0  0  0  0  0
   -1.3901   -1.0127    4.2031 H   0  0  0  0  0  0  0  0  0  0  0  0
    0.0037    2.1529    3.9062 H   0  0  0  0  0  0  0  0  0  0  0  0
   -0.0468    0.7804    5.0221 H   0  0  0  0  0  0  0  0  0  0  0  0
    1.4078    1.1098    4.0652 H   0  0  0  0  0  0  0  0  0  0  0  0
  1  2  1  0
  2  3  2  0
  3  4  1  0
  4  5  2  0
  5  6  1  0
  6  7  1  0
  7  8  1  0
  8  9  2  0
  9 10  1  0
 10 11  2  0
 11 12  1  0
 11 13  1  0
  6 14  2  0
 14  2  1  0
 13  7  2  0
  1 15  1  0
  1 16  1  0
  1 17  1  0
  3 18  1  0
  4 19  1  0
  5 20  1  0
  8 21  1  0
  9 22  1  0
 10 23  1  0
 12 24  1  0
 12 25  1  0
 12 26  1  0
M  END
$$$$

     RDKit          3D

 26 27  0  0  0  0  0  0  0  0999 V2000
   -0.6649   -3.8614    1.5380 C   0  0  0  0  0  0  0  0  0  0  0  0
   -0.4251   -2.8988    0.4206 C   0  0  0  0  0  0  0  0  0  0  0  0
   -0.3361   -3.3190   -0.9055 C   0  0  0  0  0  0  0  0  0  0  0  0
   -0.1005   -2.3799   -1.9016 C   0  0  0  0  0  0  0  0  0  0  0  0
    0.0381   -1.0477   -1.5553 C   0  0  0  0  0  0  0  0  0  0  0  0
   -0.0652   -0.7086   -0.2055 C   0  0  0  0  0  0  0  0  0  0  0  0
    0.0802    0.7063    0.2159 C   0  0  0  0  0  0  0  0  0  0  0  0
    0.0326    1.0451    1.5680 C   0  0  0  0  0  0  0  0  0  0  0  0
    0.1789    2.3791    1.9090 C   0  0  0  0  0  0  0  0  0  0  0  0
    0.3626    3.3189    0.9041 C   0  0  0  0  0  0  0  0  0  0  0  0
    0.3954    2.8998   -0.4244 C   0  0  0  0  0  0  0  0  0  0  0  0
    0.5819    3.8621   -1.5500 C   0  0  0  0  0  0  0  0  0  0  0  0
    0.2557    1.6054   -0.7574 N   0  0  0  0  0  0  0  0  0  0  0  0
   -0.2903   -1.6048    0.7609 N   0  0  0  0  0  0  0  0  0  0  0  0
   -0.9237   -4.8568    1.1604 H   0  0  0  0  0  0  0  0  0  0  0  0
   -1.4770   -3.5136    2.1743 H   0  0  0  0  0  0  0  0  0  0  0  0
    0.2240   -3.9539    2.1625 H   0  0  0  0  0  0  0  0  0  0  0  0
   -0.4528   -4.3717   -1.1447 H   0  0  0  0  0  0  0  0  0  0  0  0
   -0.0250   -2.6775   -2.9413 H   0  0  0  0  0  0  0  0  0  0  0  0
    0.2157   -0.2846   -2.2953 H   0  0  0  0  0  0  0  0  0  0  0  0
   -0.1196    0.2856    2.3163 H   0  0  0  0  0  0  0  0  0  0  0  0
    0.1499    2.6759    2.9506 H   0  0  0  0  0  0  0  0  0  0  0  0
    0.4802    4.3728    1.1394 H   0  0  0  0  0  0  0  0  0  0  0  0
    0.7256    4.8852   -1.1823 H   0  0  0  0  0  0  0  0  0  0  0  0
   -0.2895    3.8516   -2.2040 H   0  0  0  0  0  0  0  0  0  0  0  0
    1.4490    3.5905   -2.1525 H   0  0  0  0  0  0  0  0  0  0  0  0
  1  2  1  0
  2  3  2  0
  3  4  1  0
  4  5  2  0
  5  6  1  0
  6  7  1  0
  7  8  1  0
  8  9  2  0
  9 10  1  0
 10 11  2  0
 11 12  1  0
 11 13  1  0
  6 14  2  0
 14  2  1  0
 13  7  2  0
  1 15  1  0
  1 16  1  0
  1 17  1  0
  3 18  1  0
  4 19  1  0
  5 20  1  0
  8 21  1  0
  9 22  1  0
 10 23  1  0
 12 24  1  0
 12 25  1  0
 12 26  1  0
M  END
$$$$

     RDKit          3D

 26 27  0  0  0  0  0  0  0  0999 V2000
   -3.0053   -2.9279   -0.3311 C   0  0  0  0  0  0  0  0  0  0  0  0
   -2.2816   -1.7064   -0.7909 C   0  0  0  0  0  0  0  0  0  0  0  0
   -2.6840   -1.0049   -1.9258 C   0  0  0  0  0  0  0  0  0  0  0  0
   -1.9914    0.1387   -2.3008 C   0  0  0  0  0  0  0  0  0  0  0  0
   -0.9085    0.5506   -1.5437 C   0  0  0  0  0  0  0  0  0  0  0  0
   -0.5684   -0.2084   -0.4222 C   0  0  0  0  0  0  0  0  0  0  0  0
    0.5827    0.1897    0.4226 C   0  0  0  0  0  0  0  0  0  0  0  0
    0.9568   -0.5901    1.5189 C   0  0  0  0  0  0  0  0  0  0  0  0
    2.0442   -0.1748    2.2680 C   0  0  0  0  0  0  0  0  0  0  0  0
    2.7099    0.9887    1.9059 C   0  0  0  0  0  0  0  0  0  0  0  0
    2.2716    1.7129    0.7984 C   0  0  0  0  0  0  0  0  0  0  0  0
    2.9437    2.9737    0.3670 C   0  0  0  0  0  0  0  0  0  0  0  0
    1.2177    1.3106    0.0691 N   0  0  0  0  0  0  0  0  0  0  0  0
   -1.2342   -1.3059   -0.0496 N   0  0  0  0  0  0  0  0  0  0  0  0
   -2.3117   -3.6778    0.0449 H   0  0  0  0  0  0  0  0  0  0  0  0
   -3.6907   -2.6771    0.4803 H   0  0  0  0  0  0  0  0  0  0  0  0
   -3.5902   -3.3737   -1.1449 H   0  0  0  0  0  0  0  0  0  0  0  0
   -3.5360   -1.3586   -2.4989 H   0  0  0  0  0  0  0  0  0  0  0  0
   -2.2860    0.7050   -3.1779 H   0  0  0  0  0  0  0  0  0  0  0  0
   -0.3340    1.4246   -1.8057 H   0  0  0  0  0  0  0  0  0  0  0  0
    0.4119   -1.4875    1.7620 H   0  0  0  0  0  0  0  0  0  0  0  0
    2.3665   -0.7606    3.1213 H   0  0  0  0  0  0  0  0  0  0  0  0
    3.5632    1.3434    2.4757 H   0  0  0  0  0  0  0  0  0  0  0  0
    3.2576    2.9141   -0.6762 H   0  0  0  0  0  0  0  0  0  0  0  0
    3.8320    3.1821    0.9798 H   0  0  0  0  0  0  0  0  0  0  0  0
    2.2644    3.8197    0.4540 H   0  0  0  0  0  0  0  0  0  0  0  0
  1  2  1  0
  2  3  2  0
  3  4  1  0
  4  5  2  0
  5  6  1  0
  6  7  1  0
  7  8  1  0
  8  9  2  0
  9 10  1  0
 10 11  2  0
 11 12  1  0
 11 13  1  0
  6 14  2  0
 14  2  1  0
 13  7  2  0
  1 15  1  0
  1 16  1  0
  1 17  1  0
  3 18  1  0
  4 19  1  0
  5 20  1  0
  8 21  1  0
  9 22  1  0
 10 23  1  0
 12 24  1  0
 12 25  1  0
 12 26  1  0
M  END
$$$$

     RDKit          3D

 26 27  0  0  0  0  0  0  0  0999 V2000
   -0.8254   -1.7298    3.7460 C   0  0  0  0  0  0  0  0  0  0  0  0
   -0.8749   -1.6989    2.2546 C   0  0  0  0  0  0  0  0  0  0  0  0
   -1.4984   -2.7120    1.5307 C   0  0  0  0  0  0  0  0  0  0  0  0
   -1.5449   -2.6300    0.1464 C   0  0  0  0  0  0  0  0  0  0  0  0
   -0.9660   -1.5421   -0.4873 C   0  0  0  0  0  0  0  0  0  0  0  0
   -0.3540   -0.5744    0.3063 C   0  0  0  0  0  0  0  0  0  0  0  0
    0.3022    0.6015   -0.3175 C   0  0  0  0  0  0  0  0  0  0  0  0
    0.8837    1.5820    0.4870 C   0  0  0  0  0  0  0  0  0  0  0  0
    1.5022    2.6501   -0.1385 C   0  0  0  0  0  0  0  0  0  0  0  0
    1.5157    2.7081   -1.5245 C   0  0  0  0  0  0  0  0  0  0  0  0
    0.9037    1.6929   -2.2576 C   0  0  0  0  0  0  0  0  0  0  0  0
    0.8930    1.7012   -3.7499 C   0  0  0  0  0  0  0  0  0  0  0  0
    0.3024    0.6539   -1.6513 N   0  0  0  0  0  0  0  0  0  0  0  0
   -0.3099   -0.6436    1.6418 N   0  0  0  0  0  0  0  0  0  0  0  0
   -1.7527   -1.3296    4.1602 H   0  0  0  0  0  0  0  0  0  0  0  0
   -0.0029   -1.1284    4.1273 H   0  0  0  0  0  0  0  0  0  0  0  0
   -0.7076   -2.7546    4.1162 H   0  0  0  0  0  0  0  0  0  0  0  0
   -1.9410   -3.5523    2.0597 H   0  0  0  0  0  0  0  0  0  0  0  0
   -2.0242   -3.4025   -0.4405 H   0  0  0  0  0  0  0  0  0  0  0  0
   -0.9833   -1.4401   -1.5603 H   0  0  0  0  0  0  0  0  0  0  0  0
    0.8463    1.4963    1.5606 H   0  0  0  0  0  0  0  0  0  0  0  0
    1.9678    3.4256    0.4585 H   0  0  0  0  0  0  0  0  0  0  0  0
    1.9982    3.5295   -2.0456 H   0  0  0  0  0  0  0  0  0  0  0  0
    1.4517    0.8512   -4.1422 H   0  0  0  0  0  0  0  0  0  0  0  0
    1.3440    2.6189   -4.1463 H   0  0  0  0  0  0  0  0  0  0  0  0
   -0.1256    1.6270   -4.1336 H   0  0  0  0  0  0  0  0  0  0  0  0
  1  2  1  0
  2  3  2  0
  3  4  1  0
  4  5  2  0
  5  6  1  0
  6  7  1  0
  7  8  1  0
  8  9  2  0
  9 10  1  0
 10 11  2  0
 11 12  1  0
 11 13  1  0
  6 14  2  0
 14  2  1  0
 13  7  2  0
  1 15  1  0
  1 16  1  0
  1 17  1  0
  3 18  1  0
  4 19  1  0
  5 20  1  0
  8 21  1  0
  9 22  1  0
 10 23  1  0
 12 24  1  0
 12 25  1  0
 12 26  1  0
M  END
$$$$

     RDKit          3D

 26 27  0  0  0  0  0  0  0  0999 V2000
   -2.0735    3.5826   -0.7888 C   0  0  0  0  0  0  0  0  0  0  0  0
   -0.8473    2.7318   -0.7491 C   0  0  0  0  0  0  0  0  0  0  0  0
    0.3848    3.2249   -1.1742 C   0  0  0  0  0  0  0  0  0  0  0  0
    1.4965    2.3956   -1.1434 C   0  0  0  0  0  0  0  0  0  0  0  0
    1.3589    1.0965   -0.6830 C   0  0  0  0  0  0  0  0  0  0  0  0
    0.0918    0.6772   -0.2778 C   0  0  0  0  0  0  0  0  0  0  0  0
   -0.1105   -0.7063    0.2176 C   0  0  0  0  0  0  0  0  0  0  0  0
   -1.3966   -1.1755    0.4851 C   0  0  0  0  0  0  0  0  0  0  0  0
   -1.5291   -2.4725    0.9498 C   0  0  0  0  0  0  0  0  0  0  0  0
   -0.3920   -3.2469    1.1331 C   0  0  0  0  0  0  0  0  0  0  0  0
    0.8573   -2.7040    0.8427 C   0  0  0  0  0  0  0  0  0  0  0  0
    2.1130   -3.4929    1.0116 C   0  0  0  0  0  0  0  0  0  0  0  0
    0.9888   -1.4472    0.3855 N   0  0  0  0  0  0  0  0  0  0  0  0
   -0.9864    1.4692   -0.3117 N   0  0  0  0  0  0  0  0  0  0  0  0
   -1.8345    4.6223   -0.5480 H   0  0  0  0  0  0  0  0  0  0  0  0
   -2.8244    3.2326   -0.0845 H   0  0  0  0  0  0  0  0  0  0  0  0
   -2.5162    3.5601   -1.7884 H   0  0  0  0  0  0  0  0  0  0  0  0
    0.4573    4.2514   -1.5223 H   0  0  0  0  0  0  0  0  0  0  0  0
    2.4661    2.7492   -1.4707 H   0  0  0  0  0  0  0  0  0  0  0  0
    2.1979    0.4236   -0.6286 H   0  0  0  0  0  0  0  0  0  0  0  0
   -2.2514   -0.5388    0.3285 H   0  0  0  0  0  0  0  0  0  0  0  0
   -2.5135   -2.8712    1.1612 H   0  0  0  0  0  0  0  0  0  0  0  0
   -0.4633   -4.2664    1.5001 H   0  0  0  0  0  0  0  0  0  0  0  0
    1.9248   -4.4238    1.5602 H   0  0  0  0  0  0  0  0  0  0  0  0
    2.8634   -2.9214    1.5558 H   0  0  0  0  0  0  0  0  0  0  0  0
    2.5378   -3.7502    0.0393 H   0  0  0  0  0  0  0  0  0  0  0  0
  1  2  1  0
  2  3  2  0
  3  4  1  0
  4  5  2  0
  5  6  1  0
  6  7  1  0
  7  8  1  0
  8  9  2  0
  9 10  1  0
 10 11  2  0
 11 12  1  0
 11 13  1  0
  6 14  2  0
 14  2  1  0
 13  7  2  0
  1 15  1  0
  1 16  1  0
  1 17  1  0
  3 18  1  0
  4 19  1  0
  5 20  1  0
  8 21  1  0
  9 22  1  0
 10 23  1  0
 12 24  1  0
 12 25  1  0
 12 26  1  0
M  END
$$$$

     RDKit          3D

 26 27  0  0  0  0  0  0  0  0999 V2000
   -2.5671    3.3192   -0.3631 C   0  0  0  0  0  0  0  0  0  0  0  0
   -2.2882    1.8665   -0.1594 C   0  0  0  0  0  0  0  0  0  0  0  0
   -3.3210    0.9473    0.0146 C   0  0  0  0  0  0  0  0  0  0  0  0
   -3.0162   -0.3962    0.1802 C   0  0  0  0  0  0  0  0  0  0  0  0
   -1.6908   -0.7955    0.1679 C   0  0  0  0  0  0  0  0  0  0  0  0
   -0.7150    0.1864   -0.0017 C   0  0  0  0  0  0  0  0  0  0  0  0
    0.7203   -0.1865   -0.0050 C   0  0  0  0  0  0  0  0  0  0  0  0
    1.6961    0.7982   -0.1523 C   0  0  0  0  0  0  0  0  0  0  0  0
    3.0225    0.4014   -0.1464 C   0  0  0  0  0  0  0  0  0  0  0  0
    3.3278   -0.9446    0.0039 C   0  0  0  0  0  0  0  0  0  0  0  0
    2.2943   -1.8678    0.1471 C   0  0  0  0  0  0  0  0  0  0  0  0
    2.5571   -3.3246    0.3328 C   0  0  0  0  0  0  0  0  0  0  0  0
    1.0062   -1.4840    0.1413 N   0  0  0  0  0  0  0  0  0  0  0  0
   -1.0008    1.4834   -0.1620 N   0  0  0  0  0  0  0  0  0  0  0  0
   -3.6022    3.5650   -0.0968 H   0  0  0  0  0  0  0  0  0  0  0  0
   -1.9021    3.9382    0.2378 H   0  0  0  0  0  0  0  0  0  0  0  0
   -2.4143    3.5923   -1.4076 H   0  0  0  0  0  0  0  0  0  0  0  0
   -4.3516    1.2930    0.0220 H   0  0  0  0  0  0  0  0  0  0  0  0
   -3.7994   -1.1316    0.3195 H   0  0  0  0  0  0  0  0  0  0  0  0
   -1.4070   -1.8277    0.2862 H   0  0  0  0  0  0  0  0  0  0  0  0
    1.4128    1.8306   -0.2700 H   0  0  0  0  0  0  0  0  0  0  0  0
    3.8077    1.1407   -0.2546 H   0  0  0  0  0  0  0  0  0  0  0  0
    4.3586   -1.2861    0.0116 H   0  0  0  0  0  0  0  0  0  0  0  0
    2.3785   -3.6166    1.3691 H   0  0  0  0  0  0  0  0  0  0  0  0
    3.5950   -3.5768    0.0794 H   0  0  0  0  0  0  0  0  0  0  0  0
    1.8992   -3.9243   -0.2944 H   0  0  0  0  0  0  0  0  0  0  0  0
  1  2  1  0
  2  3  2  0
  3  4  1  0
  4  5  2  0
  5  6  1  0
  6  7  1  0
  7  8  1  0
  8  9  2  0
  9 10  1  0
 10 11  2  0
 11 12  1  0
 11 13  1  0
  6 14  2  0
 14  2  1  0
 13  7  2  0
  1 15  1  0
  1 16  1  0
  1 17  1  0
  3 18  1  0
  4 19  1  0
  5 20  1  0
  8 21  1  0
  9 22  1  0
 10 23  1  0
 12 24  1  0
 12 25  1  0
 12 26  1  0
M  END
$$$$

     RDKit          3D

 26 27  0  0  0  0  0  0  0  0999 V2000
   -1.5585    3.6719   -1.3584 C   0  0  0  0  0  0  0  0  0  0  0  0
   -0.7947    2.4037   -1.5402 C   0  0  0  0  0  0  0  0  0  0  0  0
   -0.1960    2.0793   -2.7551 C   0  0  0  0  0  0  0  0  0  0  0  0
    0.4986    0.8842   -2.8732 C   0  0  0  0  0  0  0  0  0  0  0  0
    0.5804    0.0401   -1.7791 C   0  0  0  0  0  0  0  0  0  0  0  0
   -0.0484    0.4358   -0.5980 C   0  0  0  0  0  0  0  0  0  0  0  0
    0.0073   -0.4406    0.5974 C   0  0  0  0  0  0  0  0  0  0  0  0
   -0.7077   -0.1120    1.7489 C   0  0  0  0  0  0  0  0  0  0  0  0
   -0.6187   -0.9683    2.8344 C   0  0  0  0  0  0  0  0  0  0  0  0
    0.1717   -2.1045    2.7407 C   0  0  0  0  0  0  0  0  0  0  0  0
    0.8544   -2.3637    1.5549 C   0  0  0  0  0  0  0  0  0  0  0  0
    1.6976   -3.5835    1.3946 C   0  0  0  0  0  0  0  0  0  0  0  0
    0.7674   -1.5380    0.5005 N   0  0  0  0  0  0  0  0  0  0  0  0
   -0.7188    1.5849   -0.4776 N   0  0  0  0  0  0  0  0  0  0  0  0
   -1.1513    4.2500   -0.5298 H   0  0  0  0  0  0  0  0  0  0  0  0
   -1.5179    4.2959   -2.2589 H   0  0  0  0  0  0  0  0  0  0  0  0
   -2.6037    3.4649   -1.1349 H   0  0  0  0  0  0  0  0  0  0  0  0
   -0.2777    2.7639   -3.5943 H   0  0  0  0  0  0  0  0  0  0  0  0
    0.9690    0.6055   -3.8088 H   0  0  0  0  0  0  0  0  0  0  0  0
    1.1141   -0.8957   -1.8209 H   0  0  0  0  0  0  0  0  0  0  0  0
   -1.3085    0.7824    1.7842 H   0  0  0  0  0  0  0  0  0  0  0  0
   -1.1657   -0.7458    3.7431 H   0  0  0  0  0  0  0  0  0  0  0  0
    0.2659   -2.7939    3.5747 H   0  0  0  0  0  0  0  0  0  0  0  0
    1.9216   -4.0379    2.3673 H   0  0  0  0  0  0  0  0  0  0  0  0
    1.1805   -4.3277    0.7855 H   0  0  0  0  0  0  0  0  0  0  0  0
    2.6392   -3.3510    0.9029 H   0  0  0  0  0  0  0  0  0  0  0  0
  1  2  1  0
  2  3  2  0
  3  4  1  0
  4  5  2  0
  5  6  1  0
  6  7  1  0
  7  8  1  0
  8  9  2  0
  9 10  1  0
 10 11  2  0
 11 12  1  0
 11 13  1  0
  6 14  2  0
 14  2  1  0
 13  7  2  0
  1 15  1  0
  1 16  1  0
  1 17  1  0
  3 18  1  0
  4 19  1  0
  5 20  1  0
  8 21  1  0
  9 22  1  0
 10 23  1  0
 12 24  1  0
 12 25  1  0
 12 26  1  0
M  END
$$$$

     RDKit          3D

 26 27  0  0  0  0  0  0  0  0999 V2000
    1.6173    3.7656    0.9368 C   0  0  0  0  0  0  0  0  0  0  0  0
    0.8427    2.8321    0.0684 C   0  0  0  0  0  0  0  0  0  0  0  0
    0.2206    3.2670   -1.1009 C   0  0  0  0  0  0  0  0  0  0  0  0
   -0.5121    2.3636   -1.8590 C   0  0  0  0  0  0  0  0  0  0  0  0
   -0.6060    1.0473   -1.4368 C   0  0  0  0  0  0  0  0  0  0  0  0
    0.0533    0.6910   -0.2597 C   0  0  0  0  0  0  0  0  0  0  0  0
   -0.0107   -0.7048    0.2367 C   0  0  0  0  0  0  0  0  0  0  0  0
    0.6801   -1.0732    1.3925 C   0  0  0  0  0  0  0  0  0  0  0  0
    0.5805   -2.3867    1.8167 C   0  0  0  0  0  0  0  0  0  0  0  0
   -0.1953   -3.2775    1.0861 C   0  0  0  0  0  0  0  0  0  0  0  0
   -0.8510   -2.8312   -0.0604 C   0  0  0  0  0  0  0  0  0  0  0  0
   -1.7019   -3.7376   -0.8856 C   0  0  0  0  0  0  0  0  0  0  0  0
   -0.7497   -1.5580   -0.4764 N   0  0  0  0  0  0  0  0  0  0  0  0
    0.7562    1.5545    0.4767 N   0  0  0  0  0  0  0  0  0  0  0  0
    1.0373    4.0296    1.8246 H   0  0  0  0  0  0  0  0  0  0  0  0
    2.5465    3.3105    1.2765 H   0  0  0  0  0  0  0  0  0  0  0  0
    1.8626    4.6900    0.4011 H   0  0  0  0  0  0  0  0  0  0  0  0
    0.3143    4.3059   -1.4061 H   0  0  0  0  0  0  0  0  0  0  0  0
   -1.0110    2.6797   -2.7679 H   0  0  0  0  0  0  0  0  0  0  0  0
   -1.1671    0.3139   -1.9919 H   0  0  0  0  0  0  0  0  0  0  0  0
    1.2716   -0.3498    1.9291 H   0  0  0  0  0  0  0  0  0  0  0  0
    1.1024   -2.7043    2.7120 H   0  0  0  0  0  0  0  0  0  0  0  0
   -0.2972   -4.3135    1.3945 H   0  0  0  0  0  0  0  0  0  0  0  0
   -1.7382   -4.7480   -0.4596 H   0  0  0  0  0  0  0  0  0  0  0  0
   -2.7226   -3.3578   -0.9435 H   0  0  0  0  0  0  0  0  0  0  0  0
   -1.3227   -3.8083   -1.9039 H   0  0  0  0  0  0  0  0  0  0  0  0
  1  2  1  0
  2  3  2  0
  3  4  1  0
  4  5  2  0
  5  6  1  0
  6  7  1  0
  7  8  1  0
  8  9  2  0
  9 10  1  0
 10 11  2  0
 11 12  1  0
 11 13  1  0
  6 14  2  0
 14  2  1  0
 13  7  2  0
  1 15  1  0
  1 16  1  0
  1 17  1  0
  3 18  1  0
  4 19  1  0
  5 20  1  0
  8 21  1  0
  9 22  1  0
 10 23  1  0
 12 24  1  0
 12 25  1  0
 12 26  1  0
M  END
$$$$
