
     RDKit          3D

 40 43  0  0  0  0  0  0  0  0999 V2000
   -1.0155    6.2514   -2.9154 C   0  0  0  0  0  0  0  0  0  0  0  0
   -1.5658    5.2642   -3.7327 C   0  0  0  0  0  0  0  0  0  0  0  0
   -1.7092    3.9752   -3.2626 C   0  0  0  0  0  0  0  0  0  0  0  0
   -1.3090    3.6290   -1.9683 C   0  0  0  0  0  0  0  0  0  0  0  0
   -1.4800    2.2431   -1.4626 C   0  0  0  0  0  0  0  0  0  0  0  0
   -2.5738    1.4740   -1.8227 C   0  0  0  0  0  0  0  0  0  0  0  0
   -2.6720    0.1899   -1.3143 C   0  0  0  0  0  0  0  0  0  0  0  0
   -1.7776   -0.3580   -0.5180 N   0  0  0  0  0  0  0  0  0  0  0  0
   -0.7160    0.3819   -0.1704 C   0  0  0  0  0  0  0  0  0  0  0  0
    0.2829   -0.2517    0.7254 C   0  0  0  0  0  0  0  0  0  0  0  0
    0.3308   -1.6211    0.8676 C   0  0  0  0  0  0  0  0  0  0  0  0
    1.2867   -2.1820    1.7073 C   0  0  0  0  0  0  0  0  0  0  0  0
    1.3827   -3.6542    1.8716 C   0  0  0  0  0  0  0  0  0  0  0  0
    2.6266   -4.2789    1.9993 C   0  0  0  0  0  0  0  0  0  0  0  0
    2.7219   -5.6473    2.1513 C   0  0  0  0  0  0  0  0  0  0  0  0
    1.5692   -6.4311    2.1942 C   0  0  0  0  0  0  0  0  0  0  0  0
    0.3276   -5.8220    2.0780 C   0  0  0  0  0  0  0  0  0  0  0  0
    0.2356   -4.4445    1.9091 C   0  0  0  0  0  0  0  0  0  0  0  0
    2.1458   -1.3310    2.3775 C   0  0  0  0  0  0  0  0  0  0  0  0
    2.0084    0.0314    2.1792 C   0  0  0  0  0  0  0  0  0  0  0  0
    1.1175    0.5702    1.3768 N   0  0  0  0  0  0  0  0  0  0  0  0
   -0.5379    1.6775   -0.6108 C   0  0  0  0  0  0  0  0  0  0  0  0
   -0.7506    4.6204   -1.1616 C   0  0  0  0  0  0  0  0  0  0  0  0
   -0.6102    5.9229   -1.6303 C   0  0  0  0  0  0  0  0  0  0  0  0
   -0.9013    7.2643   -3.2857 H   0  0  0  0  0  0  0  0  0  0  0  0
   -1.8758    5.5047   -4.7448 H   0  0  0  0  0  0  0  0  0  0  0  0
   -2.1309    3.2170   -3.9086 H   0  0  0  0  0  0  0  0  0  0  0  0
   -3.3485    1.8571   -2.4808 H   0  0  0  0  0  0  0  0  0  0  0  0
   -3.5320   -0.4321   -1.5726 H   0  0  0  0  0  0  0  0  0  0  0  0
   -0.3619   -2.2493    0.3179 H   0  0  0  0  0  0  0  0  0  0  0  0
    3.5251   -3.6769    1.9764 H   0  0  0  0  0  0  0  0  0  0  0  0
    3.7013   -6.1079    2.2293 H   0  0  0  0  0  0  0  0  0  0  0  0
    1.6435   -7.5045    2.3168 H   0  0  0  0  0  0  0  0  0  0  0  0
   -0.5783   -6.4123    2.1239 H   0  0  0  0  0  0  0  0  0  0  0  0
   -0.7398   -3.9858    1.8295 H   0  0  0  0  0  0  0  0  0  0  0  0
    2.9077   -1.7052    3.0523 H   0  0  0  0  0  0  0  0  0  0  0  0
    2.6620    0.7218    2.7136 H   0  0  0  0  0  0  0  0  0  0  0  0
    0.3398    2.2326   -0.3056 H   0  0  0  0  0  0  0  0  0  0  0  0
   -0.4399    4.3894   -0.1514 H   0  0  0  0  0  0  0  0  0  0  0  0
   -0.1889    6.6778   -0.9776 H   0  0  0  0  0  0  0  0  0  0  0  0
  1  2  2  0
  2  3  1  0
  3  4  2  0
  4  5  1  0
  5  6  2  0
  6  7  1  0
  7  8  2  0
  8  9  1  0
  9 10  1  0
 10 11  2  0
 11 12  1  0
 12 13  1  0
 13 14  2  0
 14 15  1  0
 15 16  2  0
 16 17  1  0
 17 18  2  0
 12 19  2  0
 19 20  1  0
 20 21  2  0
  9 22  2  0
  4 23  1  0
 23 24  2  0
 24  1  1  0
 22  5  1  0
 21 10  1  0
 18 13  1  0
  1 25  1  0
  2 26  1  0
  3 27  1  0
  6 28  1  0
  7 29  1  0
 11 30  1  0
 14 31  1  0
 15 32  1  0
 16 33  1  0
 17 34  1  0
 18 35  1  0
 19 36  1  0
 20 37  1  0
 22 38  1  0
 23 39  1  0
 24 40  1  0
M  END
$$$$

     RDKit          3D

 40 43  0  0  0  0  0  0  0  0999 V2000
   -5.1188   -0.1132   -2.8343 C   0  0  0  0  0  0  0  0  0  0  0  0
   -5.6920    0.2658   -1.6138 C   0  0  0  0  0  0  0  0  0  0  0  0
   -4.8928    0.7163   -0.5831 C   0  0  0  0  0  0  0  0  0  0  0  0
   -3.5069    0.7999   -0.7356 C   0  0  0  0  0  0  0  0  0  0  0  0
   -2.6550    1.3002    0.3749 C   0  0  0  0  0  0  0  0  0  0  0  0
   -3.0535    2.3535    1.1889 C   0  0  0  0  0  0  0  0  0  0  0  0
   -2.2046    2.7737    2.2008 C   0  0  0  0  0  0  0  0  0  0  0  0
   -1.0206    2.2131    2.4523 N   0  0  0  0  0  0  0  0  0  0  0  0
   -0.6399    1.1942    1.6752 C   0  0  0  0  0  0  0  0  0  0  0  0
    0.6743    0.5757    1.9706 C   0  0  0  0  0  0  0  0  0  0  0  0
    1.4609    0.0899    0.9334 C   0  0  0  0  0  0  0  0  0  0  0  0
    2.6781   -0.5191    1.2256 C   0  0  0  0  0  0  0  0  0  0  0  0
    3.5105   -1.0895    0.1311 C   0  0  0  0  0  0  0  0  0  0  0  0
    4.9047   -1.0753    0.2145 C   0  0  0  0  0  0  0  0  0  0  0  0
    5.6822   -1.5985   -0.7992 C   0  0  0  0  0  0  0  0  0  0  0  0
    5.0775   -2.1665   -1.9269 C   0  0  0  0  0  0  0  0  0  0  0  0
    3.6870   -2.1929   -2.0183 C   0  0  0  0  0  0  0  0  0  0  0  0
    2.9057   -1.6567   -1.0006 C   0  0  0  0  0  0  0  0  0  0  0  0
    3.0683   -0.5763    2.5582 C   0  0  0  0  0  0  0  0  0  0  0  0
    2.2200   -0.0582    3.5256 C   0  0  0  0  0  0  0  0  0  0  0  0
    1.0443    0.5082    3.2539 N   0  0  0  0  0  0  0  0  0  0  0  0
   -1.4181    0.7143    0.6260 C   0  0  0  0  0  0  0  0  0  0  0  0
   -2.9305    0.4050   -1.9501 C   0  0  0  0  0  0  0  0  0  0  0  0
   -3.7367   -0.0417   -2.9938 C   0  0  0  0  0  0  0  0  0  0  0  0
   -5.7413   -0.4593   -3.6451 H   0  0  0  0  0  0  0  0  0  0  0  0
   -6.7666    0.2044   -1.4789 H   0  0  0  0  0  0  0  0  0  0  0  0
   -5.3359    1.0061    0.3572 H   0  0  0  0  0  0  0  0  0  0  0  0
   -4.0064    2.8516    1.0401 H   0  0  0  0  0  0  0  0  0  0  0  0
   -2.4986    3.6036    2.8340 H   0  0  0  0  0  0  0  0  0  0  0  0
    1.1531    0.2274   -0.0917 H   0  0  0  0  0  0  0  0  0  0  0  0
    5.3789   -0.6469    1.0827 H   0  0  0  0  0  0  0  0  0  0  0  0
    6.7631   -1.5671   -0.7217 H   0  0  0  0  0  0  0  0  0  0  0  0
    5.6802   -2.5797   -2.7223 H   0  0  0  0  0  0  0  0  0  0  0  0
    3.2081   -2.6360   -2.8884 H   0  0  0  0  0  0  0  0  0  0  0  0
    1.8294   -1.7020   -1.0748 H   0  0  0  0  0  0  0  0  0  0  0  0
    4.0074   -1.0284    2.8529 H   0  0  0  0  0  0  0  0  0  0  0  0
    2.5083   -0.1084    4.5697 H   0  0  0  0  0  0  0  0  0  0  0  0
   -1.0817   -0.1217    0.0299 H   0  0  0  0  0  0  0  0  0  0  0  0
   -1.8587    0.4665   -2.0812 H   0  0  0  0  0  0  0  0  0  0  0  0
   -3.2832   -0.3318   -3.9381 H   0  0  0  0  0  0  0  0  0  0  0  0
  1  2  2  0
  2  3  1  0
  3  4  2  0
  4  5  1  0
  5  6  2  0
  6  7  1  0
  7  8  2  0
  8  9  1  0
  9 10  1  0
 10 11  2  0
 11 12  1  0
 12 13  1  0
 13 14  2  0
 14 15  1  0
 15 16  2  0
 16 17  1  0
 17 18  2  0
 12 19  2  0
 19 20  1  0
 20 21  2  0
  9 22  2  0
  4 23  1  0
 23 24  2  0
 24  1  1  0
 22  5  1  0
 21 10  1  0
 18 13  1  0
  1 25  1  0
  2 26  1  0
  3 27  1  0
  6 28  1  0
  7 29  1  0
 11 30  1  0
 14 31  1  0
 15 32  1  0
 16 33  1  0
 17 34  1  0
 18 35  1  0
 19 36  1  0
 20 37  1  0
 22 38  1  0
 23 39  1  0
 24 40  1  0
M  END
$$$$

     RDKit          3D

 40 43  0  0  0  0  0  0  0  0999 V2000
    6.6920   -0.7393    1.9200 C   0  0  0  0  0  0  0  0  0  0  0  0
    6.1370    0.2450    2.7341 C   0  0  0  0  0  0  0  0  0  0  0  0
    4.8657    0.7188    2.4800 C   0  0  0  0  0  0  0  0  0  0  0  0
    4.1092    0.2281    1.4105 C   0  0  0  0  0  0  0  0  0  0  0  0
    2.7431    0.7488    1.1402 C   0  0  0  0  0  0  0  0  0  0  0  0
    2.4314    2.0820    1.3364 C   0  0  0  0  0  0  0  0  0  0  0  0
    1.1466    2.5058    1.0472 C   0  0  0  0  0  0  0  0  0  0  0  0
    0.1936    1.7209    0.5932 N   0  0  0  0  0  0  0  0  0  0  0  0
    0.4901    0.4243    0.4122 C   0  0  0  0  0  0  0  0  0  0  0  0
   -0.5980   -0.4556   -0.0836 C   0  0  0  0  0  0  0  0  0  0  0  0
   -1.7879    0.0830   -0.5251 C   0  0  0  0  0  0  0  0  0  0  0  0
   -2.7993   -0.7630   -0.9741 C   0  0  0  0  0  0  0  0  0  0  0  0
   -4.0918   -0.2219   -1.4608 C   0  0  0  0  0  0  0  0  0  0  0  0
   -5.2938   -0.8917   -1.2030 C   0  0  0  0  0  0  0  0  0  0  0  0
   -6.5014   -0.3959   -1.6516 C   0  0  0  0  0  0  0  0  0  0  0  0
   -6.5410    0.7902   -2.3792 C   0  0  0  0  0  0  0  0  0  0  0  0
   -5.3561    1.4628   -2.6485 C   0  0  0  0  0  0  0  0  0  0  0  0
   -4.1408    0.9624   -2.1927 C   0  0  0  0  0  0  0  0  0  0  0  0
   -2.5547   -2.1257   -0.9542 C   0  0  0  0  0  0  0  0  0  0  0  0
   -1.3239   -2.5675   -0.5022 C   0  0  0  0  0  0  0  0  0  0  0  0
   -0.3590   -1.7767   -0.0795 N   0  0  0  0  0  0  0  0  0  0  0  0
    1.7405   -0.0930    0.6722 C   0  0  0  0  0  0  0  0  0  0  0  0
    4.6703   -0.7579    0.6005 C   0  0  0  0  0  0  0  0  0  0  0  0
    5.9531   -1.2332    0.8514 C   0  0  0  0  0  0  0  0  0  0  0  0
    7.6896   -1.1138    2.1147 H   0  0  0  0  0  0  0  0  0  0  0  0
    6.6975    0.6377    3.5749 H   0  0  0  0  0  0  0  0  0  0  0  0
    4.4435    1.4814    3.1231 H   0  0  0  0  0  0  0  0  0  0  0  0
    3.1685    2.7938    1.7008 H   0  0  0  0  0  0  0  0  0  0  0  0
    0.8813    3.5556    1.1898 H   0  0  0  0  0  0  0  0  0  0  0  0
   -1.9316    1.1548   -0.5118 H   0  0  0  0  0  0  0  0  0  0  0  0
   -5.2772   -1.8174   -0.6419 H   0  0  0  0  0  0  0  0  0  0  0  0
   -7.4175   -0.9329   -1.4315 H   0  0  0  0  0  0  0  0  0  0  0  0
   -7.4865    1.1864   -2.7312 H   0  0  0  0  0  0  0  0  0  0  0  0
   -5.3639    2.3793   -3.2230 H   0  0  0  0  0  0  0  0  0  0  0  0
   -3.2283    1.4991   -2.4193 H   0  0  0  0  0  0  0  0  0  0  0  0
   -3.3010   -2.8433   -1.2907 H   0  0  0  0  0  0  0  0  0  0  0  0
   -1.1097   -3.6361   -0.4848 H   0  0  0  0  0  0  0  0  0  0  0  0
    1.9286   -1.1484    0.5243 H   0  0  0  0  0  0  0  0  0  0  0  0
    4.1130   -1.1528   -0.2391 H   0  0  0  0  0  0  0  0  0  0  0  0
    6.3688   -1.9941    0.2025 H   0  0  0  0  0  0  0  0  0  0  0  0
  1  2  2  0
  2  3  1  0
  3  4  2  0
  4  5  1  0
  5  6  2  0
  6  7  1  0
  7  8  2  0
  8  9  1  0
  9 10  1  0
 10 11  2  0
 11 12  1  0
 12 13  1  0
 13 14  2  0
 14 15  1  0
 15 16  2  0
 16 17  1  0
 17 18  2  0
 12 19  2  0
 19 20  1  0
 20 21  2  0
  9 22  2  0
  4 23  1  0
 23 24  2  0
 24  1  1  0
 22  5  1  0
 21 10  1  0
 18 13  1  0
  1 25  1  0
  2 26  1  0
  3 27  1  0
  6 28  1  0
  7 29  1  0
 11 30  1  0
 14 31  1  0
 15 32  1  0
 16 33  1  0
 17 34  1  0
 18 35  1  0
 19 36  1  0
 20 37  1  0
 22 38  1  0
 23 39  1  0
 24 40  1  0
M  END
$$$$

     RDKit          3D

 40 43  0  0  0  0  0  0  0  0999 V2000
   -6.2157   -3.1706    0.5913 C   0  0  0  0  0  0  0  0  0  0  0  0
   -5.3461   -4.0679   -0.0233 C   0  0  0  0  0  0  0  0  0  0  0  0
   -4.0869   -3.6535   -0.4176 C   0  0  0  0  0  0  0  0  0  0  0  0
   -3.6603   -2.3368   -0.2119 C   0  0  0  0  0  0  0  0  0  0  0  0
   -2.3101   -1.8988   -0.6484 C   0  0  0  0  0  0  0  0  0  0  0  0
   -1.7635   -2.3461   -1.8396 C   0  0  0  0  0  0  0  0  0  0  0  0
   -0.5191   -1.8685   -2.2120 C   0  0  0  0  0  0  0  0  0  0  0  0
    0.1957   -1.0275   -1.4957 N   0  0  0  0  0  0  0  0  0  0  0  0
   -0.3166   -0.6170   -0.3256 C   0  0  0  0  0  0  0  0  0  0  0  0
    0.5150    0.3061    0.4860 C   0  0  0  0  0  0  0  0  0  0  0  0
    1.6517    0.8744   -0.0462 C   0  0  0  0  0  0  0  0  0  0  0  0
    2.4019    1.7491    0.7314 C   0  0  0  0  0  0  0  0  0  0  0  0
    3.6302    2.3854    0.1905 C   0  0  0  0  0  0  0  0  0  0  0  0
    3.9627    3.7020    0.5262 C   0  0  0  0  0  0  0  0  0  0  0  0
    5.1072    4.3000    0.0336 C   0  0  0  0  0  0  0  0  0  0  0  0
    5.9576    3.5893   -0.8135 C   0  0  0  0  0  0  0  0  0  0  0  0
    5.6386    2.2815   -1.1554 C   0  0  0  0  0  0  0  0  0  0  0  0
    4.4820    1.6847   -0.6612 C   0  0  0  0  0  0  0  0  0  0  0  0
    1.9676    2.0099    2.0199 C   0  0  0  0  0  0  0  0  0  0  0  0
    0.8192    1.3796    2.4662 C   0  0  0  0  0  0  0  0  0  0  0  0
    0.1045    0.5489    1.7387 N   0  0  0  0  0  0  0  0  0  0  0  0
   -1.5560   -1.0210    0.1252 C   0  0  0  0  0  0  0  0  0  0  0  0
   -4.5363   -1.4446    0.4033 C   0  0  0  0  0  0  0  0  0  0  0  0
   -5.8038   -1.8582    0.7997 C   0  0  0  0  0  0  0  0  0  0  0  0
   -7.2032   -3.4892    0.9009 H   0  0  0  0  0  0  0  0  0  0  0  0
   -5.6510   -5.0949   -0.1877 H   0  0  0  0  0  0  0  0  0  0  0  0
   -3.4149   -4.3571   -0.8925 H   0  0  0  0  0  0  0  0  0  0  0  0
   -2.2881   -3.0515   -2.4793 H   0  0  0  0  0  0  0  0  0  0  0  0
   -0.0792   -2.1881   -3.1577 H   0  0  0  0  0  0  0  0  0  0  0  0
    1.9390    0.6536   -1.0666 H   0  0  0  0  0  0  0  0  0  0  0  0
    3.3062    4.2622    1.1794 H   0  0  0  0  0  0  0  0  0  0  0  0
    5.3337    5.3256    0.3032 H   0  0  0  0  0  0  0  0  0  0  0  0
    6.8542    4.0566   -1.2046 H   0  0  0  0  0  0  0  0  0  0  0  0
    6.2875    1.7100   -1.8081 H   0  0  0  0  0  0  0  0  0  0  0  0
    4.2554    0.6587   -0.9305 H   0  0  0  0  0  0  0  0  0  0  0  0
    2.5083    2.6850    2.6800 H   0  0  0  0  0  0  0  0  0  0  0  0
    0.4619    1.5606    3.4807 H   0  0  0  0  0  0  0  0  0  0  0  0
   -1.9293   -0.6664    1.0789 H   0  0  0  0  0  0  0  0  0  0  0  0
   -4.2325   -0.4180    0.5687 H   0  0  0  0  0  0  0  0  0  0  0  0
   -6.4672   -1.1475    1.2739 H   0  0  0  0  0  0  0  0  0  0  0  0
  1  2  2  0
  2  3  1  0
  3  4  2  0
  4  5  1  0
  5  6  2  0
  6  7  1  0
  7  8  2  0
  8  9  1  0
  9 10  1  0
 10 11  2  0
 11 12  1  0
 12 13  1  0
 13 14  2  0
 14 15  1  0
 15 16  2  0
 16 17  1  0
 17 18  2  0
 12 19  2  0
 19 20  1  0
 20 21  2  0
  9 22  2  0
  4 23  1  0
 23 24  2  0
 24  1  1  0
 22  5  1  0
 21 10  1  0
 18 13  1  0
  1 25  1  0
  2 26  1  0
  3 27  1  0
  6 28  1  0
  7 29  1  0
 11 30  1  0
 14 31  1  0
 15 32  1  0
 16 33  1  0
 17 34  1  0
 18 35  1  0
 19 36  1  0
 20 37  1  0
 22 38  1  0
 23 39  1  0
 24 40  1  0
M  END
$$$$

     RDKit          3D

 40 43  0  0  0  0  0  0  0  0999 V2000
   -2.4747    5.4941   -3.5476 C   0  0  0  0  0  0  0  0  0  0  0  0
   -1.6135    5.9928   -2.5739 C   0  0  0  0  0  0  0  0  0  0  0  0
   -1.0935    5.1485   -1.6120 C   0  0  0  0  0  0  0  0  0  0  0  0
   -1.4118    3.7843   -1.5958 C   0  0  0  0  0  0  0  0  0  0  0  0
   -0.8410    2.8877   -0.5614 C   0  0  0  0  0  0  0  0  0  0  0  0
   -0.6411    3.3279    0.7367 C   0  0  0  0  0  0  0  0  0  0  0  0
   -0.1060    2.4441    1.6575 C   0  0  0  0  0  0  0  0  0  0  0  0
    0.2264    1.2008    1.3799 N   0  0  0  0  0  0  0  0  0  0  0  0
    0.0429    0.7742    0.1214 C   0  0  0  0  0  0  0  0  0  0  0  0
    0.4460   -0.6228   -0.1764 C   0  0  0  0  0  0  0  0  0  0  0  0
    0.6811   -1.5182    0.8439 C   0  0  0  0  0  0  0  0  0  0  0  0
    1.0638   -2.8176    0.5327 C   0  0  0  0  0  0  0  0  0  0  0  0
    1.3163   -3.8166    1.6071 C   0  0  0  0  0  0  0  0  0  0  0  0
    1.8946   -3.4316    2.8178 C   0  0  0  0  0  0  0  0  0  0  0  0
    2.1359   -4.3645    3.8136 C   0  0  0  0  0  0  0  0  0  0  0  0
    1.8008   -5.7042    3.6244 C   0  0  0  0  0  0  0  0  0  0  0  0
    1.2235   -6.0975    2.4221 C   0  0  0  0  0  0  0  0  0  0  0  0
    0.9886   -5.1593    1.4253 C   0  0  0  0  0  0  0  0  0  0  0  0
    1.1985   -3.1559   -0.8016 C   0  0  0  0  0  0  0  0  0  0  0  0
    0.9424   -2.1839   -1.7526 C   0  0  0  0  0  0  0  0  0  0  0  0
    0.5713   -0.9565   -1.4692 N   0  0  0  0  0  0  0  0  0  0  0  0
   -0.4874    1.5767   -0.8676 C   0  0  0  0  0  0  0  0  0  0  0  0
   -2.2740    3.2924   -2.5731 C   0  0  0  0  0  0  0  0  0  0  0  0
   -2.8028    4.1412   -3.5403 C   0  0  0  0  0  0  0  0  0  0  0  0
   -2.8917    6.1537   -4.3008 H   0  0  0  0  0  0  0  0  0  0  0  0
   -1.3422    7.0422   -2.5704 H   0  0  0  0  0  0  0  0  0  0  0  0
   -0.4251    5.5452   -0.8599 H   0  0  0  0  0  0  0  0  0  0  0  0
   -0.9051    4.3358    1.0429 H   0  0  0  0  0  0  0  0  0  0  0  0
    0.0566    2.7692    2.6857 H   0  0  0  0  0  0  0  0  0  0  0  0
    0.5562   -1.2053    1.8754 H   0  0  0  0  0  0  0  0  0  0  0  0
    2.1758   -2.3951    2.9721 H   0  0  0  0  0  0  0  0  0  0  0  0
    2.5936   -4.0457    4.7415 H   0  0  0  0  0  0  0  0  0  0  0  0
    1.9831   -6.4276    4.4089 H   0  0  0  0  0  0  0  0  0  0  0  0
    0.9459   -7.1345    2.2605 H   0  0  0  0  0  0  0  0  0  0  0  0
    0.5401   -5.4791    0.4963 H   0  0  0  0  0  0  0  0  0  0  0  0
    1.5092   -4.1487   -1.1129 H   0  0  0  0  0  0  0  0  0  0  0  0
    1.0467   -2.4255   -2.8125 H   0  0  0  0  0  0  0  0  0  0  0  0
   -0.6064    1.1951   -1.8720 H   0  0  0  0  0  0  0  0  0  0  0  0
   -2.5473    2.2444   -2.5801 H   0  0  0  0  0  0  0  0  0  0  0  0
   -3.4761    3.7398   -4.2856 H   0  0  0  0  0  0  0  0  0  0  0  0
  1  2  2  0
  2  3  1  0
  3  4  2  0
  4  5  1  0
  5  6  2  0
  6  7  1  0
  7  8  2  0
  8  9  1  0
  9 10  1  0
 10 11  2  0
 11 12  1  0
 12 13  1  0
 13 14  2  0
 14 15  1  0
 15 16  2  0
 16 17  1  0
 17 18  2  0
 12 19  2  0
 19 20  1  0
 20 21  2  0
  9 22  2  0
  4 23  1  0
 23 24  2  0
 24  1  1  0
 22  5  1  0
 21 10  1  0
 18 13  1  0
  1 25  1  0
  2 26  1  0
  3 27  1  0
  6 28  1  0
  7 29  1  0
 11 30  1  0
 14 31  1  0
 15 32  1  0
 16 33  1  0
 17 34  1  0
 18 35  1  0
 19 36  1  0
 20 37  1  0
 22 38  1  0
 23 39  1  0
 24 40  1  0
M  END
$$$$

     RDKit          3D

 40 43  0  0  0  0  0  0  0  0999 V2000
    5.1555   -0.3155    4.7111 C   0  0  0  0  0  0  0  0  0  0  0  0
    5.1296    0.9957    4.2381 C   0  0  0  0  0  0  0  0  0  0  0  0
    4.1162    1.4064    3.3948 C   0  0  0  0  0  0  0  0  0  0  0  0
    3.0996    0.5288    2.9973 C   0  0  0  0  0  0  0  0  0  0  0  0
    2.0098    0.9834    2.0977 C   0  0  0  0  0  0  0  0  0  0  0  0
    1.5079    2.2755    2.1611 C   0  0  0  0  0  0  0  0  0  0  0  0
    0.4826    2.6306    1.2989 C   0  0  0  0  0  0  0  0  0  0  0  0
   -0.0526    1.8204    0.4065 N   0  0  0  0  0  0  0  0  0  0  0  0
    0.4421    0.5740    0.3320 C   0  0  0  0  0  0  0  0  0  0  0  0
   -0.1463   -0.3271   -0.6860 C   0  0  0  0  0  0  0  0  0  0  0  0
   -1.3297   -0.0017   -1.3144 C   0  0  0  0  0  0  0  0  0  0  0  0
   -1.8697   -0.8748   -2.2560 C   0  0  0  0  0  0  0  0  0  0  0  0
   -3.1510   -0.5680   -2.9401 C   0  0  0  0  0  0  0  0  0  0  0  0
   -4.0423   -1.5892   -3.2897 C   0  0  0  0  0  0  0  0  0  0  0  0
   -5.2381   -1.3099   -3.9268 C   0  0  0  0  0  0  0  0  0  0  0  0
   -5.5747    0.0064   -4.2372 C   0  0  0  0  0  0  0  0  0  0  0  0
   -4.6979    1.0285   -3.9009 C   0  0  0  0  0  0  0  0  0  0  0  0
   -3.5002    0.7439   -3.2535 C   0  0  0  0  0  0  0  0  0  0  0  0
   -1.1665   -2.0383   -2.5271 C   0  0  0  0  0  0  0  0  0  0  0  0
    0.0205   -2.2699   -1.8505 C   0  0  0  0  0  0  0  0  0  0  0  0
    0.5303   -1.4582   -0.9523 N   0  0  0  0  0  0  0  0  0  0  0  0
    1.4583    0.1245    1.1501 C   0  0  0  0  0  0  0  0  0  0  0  0
    3.1374   -0.7849    3.4705 C   0  0  0  0  0  0  0  0  0  0  0  0
    4.1543   -1.1992    4.3246 C   0  0  0  0  0  0  0  0  0  0  0  0
    5.9455   -0.6409    5.3734 H   0  0  0  0  0  0  0  0  0  0  0  0
    5.9082    1.6945    4.5278 H   0  0  0  0  0  0  0  0  0  0  0  0
    4.1126    2.4239    3.0257 H   0  0  0  0  0  0  0  0  0  0  0  0
    1.8932    3.0009    2.8739 H   0  0  0  0  0  0  0  0  0  0  0  0
    0.0723    3.6395    1.3395 H   0  0  0  0  0  0  0  0  0  0  0  0
   -1.8351    0.9225   -1.0633 H   0  0  0  0  0  0  0  0  0  0  0  0
   -3.7920   -2.6137   -3.0547 H   0  0  0  0  0  0  0  0  0  0  0  0
   -5.9139   -2.1182   -4.1805 H   0  0  0  0  0  0  0  0  0  0  0  0
   -6.5105    0.2286   -4.7370 H   0  0  0  0  0  0  0  0  0  0  0  0
   -4.9405    2.0546   -4.1444 H   0  0  0  0  0  0  0  0  0  0  0  0
   -2.8294    1.5562   -3.0092 H   0  0  0  0  0  0  0  0  0  0  0  0
   -1.5248   -2.7618   -3.2554 H   0  0  0  0  0  0  0  0  0  0  0  0
    0.5884   -3.1761   -2.0604 H   0  0  0  0  0  0  0  0  0  0  0  0
    1.8329   -0.8845    1.0362 H   0  0  0  0  0  0  0  0  0  0  0  0
    2.3665   -1.4891    3.1839 H   0  0  0  0  0  0  0  0  0  0  0  0
    4.1518   -2.2177    4.6959 H   0  0  0  0  0  0  0  0  0  0  0  0
  1  2  2  0
  2  3  1  0
  3  4  2  0
  4  5  1  0
  5  6  2  0
  6  7  1  0
  7  8  2  0
  8  9  1  0
  9 10  1  0
 10 11  2  0
 11 12  1  0
 12 13  1  0
 13 14  2  0
 14 15  1  0
 15 16  2  0
 16 17  1  0
 17 18  2  0
 12 19  2  0
 19 20  1  0
 20 21  2  0
  9 22  2  0
  4 23  1  0
 23 24  2  0
 24  1  1  0
 22  5  1  0
 21 10  1  0
 18 13  1  0
  1 25  1  0
  2 26  1  0
  3 27  1  0
  6 28  1  0
  7 29  1  0
 11 30  1  0
 14 31  1  0
 15 32  1  0
 16 33  1  0
 17 34  1  0
 18 35  1  0
 19 36  1  0
 20 37  1  0
 22 38  1  0
 23 39  1  0
 24 40  1  0
M  END
$$$$

     RDKit          3D

 40 43  0  0  0  0  0  0  0  0999 V2000
   -1.2922    5.6763    0.0549 C   0  0  0  0  0  0  0  0  0  0  0  0
   -2.6318    5.3096   -0.1356 C   0  0  0  0  0  0  0  0  0  0  0  0
   -2.9544    4.0007   -0.4403 C   0  0  0  0  0  0  0  0  0  0  0  0
   -1.9600    3.0268   -0.5681 C   0  0  0  0  0  0  0  0  0  0  0  0
   -2.3154    1.6208   -0.9068 C   0  0  0  0  0  0  0  0  0  0  0  0
   -3.3585    1.3175   -1.7718 C   0  0  0  0  0  0  0  0  0  0  0  0
   -3.6238   -0.0147   -2.0480 C   0  0  0  0  0  0  0  0  0  0  0  0
   -2.9292   -1.0311   -1.5344 N   0  0  0  0  0  0  0  0  0  0  0  0
   -1.9243   -0.7384   -0.7058 C   0  0  0  0  0  0  0  0  0  0  0  0
   -1.1294   -1.8617   -0.1546 C   0  0  0  0  0  0  0  0  0  0  0  0
    0.2400   -1.7126    0.0158 C   0  0  0  0  0  0  0  0  0  0  0  0
    0.9814   -2.7647    0.5403 C   0  0  0  0  0  0  0  0  0  0  0  0
    2.4534   -2.6131    0.7301 C   0  0  0  0  0  0  0  0  0  0  0  0
    3.3211   -3.6764    0.4746 C   0  0  0  0  0  0  0  0  0  0  0  0
    4.6871   -3.5342    0.6317 C   0  0  0  0  0  0  0  0  0  0  0  0
    5.2217   -2.3083    1.0562 C   0  0  0  0  0  0  0  0  0  0  0  0
    4.3640   -1.2454    1.3232 C   0  0  0  0  0  0  0  0  0  0  0  0
    2.9887   -1.3912    1.1610 C   0  0  0  0  0  0  0  0  0  0  0  0
    0.3110   -3.9352    0.8664 C   0  0  0  0  0  0  0  0  0  0  0  0
   -1.0600   -3.9919    0.6683 C   0  0  0  0  0  0  0  0  0  0  0  0
   -1.7772   -2.9846    0.1659 N   0  0  0  0  0  0  0  0  0  0  0  0
   -1.5955    0.5664   -0.3607 C   0  0  0  0  0  0  0  0  0  0  0  0
   -0.6216    3.3940   -0.3735 C   0  0  0  0  0  0  0  0  0  0  0  0
   -0.2934    4.7127   -0.0708 C   0  0  0  0  0  0  0  0  0  0  0  0
   -1.0306    6.6978    0.2942 H   0  0  0  0  0  0  0  0  0  0  0  0
   -3.4139    6.0541   -0.0357 H   0  0  0  0  0  0  0  0  0  0  0  0
   -3.9863    3.7212   -0.5716 H   0  0  0  0  0  0  0  0  0  0  0  0
   -3.9452    2.0963   -2.2450 H   0  0  0  0  0  0  0  0  0  0  0  0
   -4.4305   -0.2701   -2.7249 H   0  0  0  0  0  0  0  0  0  0  0  0
    0.7274   -0.8007   -0.2894 H   0  0  0  0  0  0  0  0  0  0  0  0
    2.9136   -4.6208    0.1429 H   0  0  0  0  0  0  0  0  0  0  0  0
    5.3501   -4.3664    0.4244 H   0  0  0  0  0  0  0  0  0  0  0  0
    6.2891   -2.1883    1.1817 H   0  0  0  0  0  0  0  0  0  0  0  0
    4.7639   -0.2950    1.6611 H   0  0  0  0  0  0  0  0  0  0  0  0
    2.3321   -0.5661    1.3852 H   0  0  0  0  0  0  0  0  0  0  0  0
    0.8335   -4.7900    1.2846 H   0  0  0  0  0  0  0  0  0  0  0  0
   -1.6034   -4.8934    0.9301 H   0  0  0  0  0  0  0  0  0  0  0  0
   -0.8096    0.7540    0.3535 H   0  0  0  0  0  0  0  0  0  0  0  0
    0.1609    2.6577   -0.4722 H   0  0  0  0  0  0  0  0  0  0  0  0
    0.7475    4.9885    0.0633 H   0  0  0  0  0  0  0  0  0  0  0  0
  1  2  2  0
  2  3  1  0
  3  4  2  0
  4  5  1  0
  5  6  2  0
  6  7  1  0
  7  8  2  0
  8  9  1  0
  9 10  1  0
 10 11  2  0
 11 12  1  0
 12 13  1  0
 13 14  2  0
 14 15  1  0
 15 16  2  0
 16 17  1  0
 17 18  2  0
 12 19  2  0
 19 20  1  0
 20 21  2  0
  9 22  2  0
  4 23  1  0
 23 24  2  0
 24  1  1  0
 22  5  1  0
 21 10  1  0
 18 13  1  0
  1 25  1  0
  2 26  1  0
  3 27  1  0
  6 28  1  0
  7 29  1  0
 11 30  1  0
 14 31  1  0
 15 32  1  0
 16 33  1  0
 17 34  1  0
 18 35  1  0
 19 36  1  0
 20 37  1  0
 22 38  1  0
 23 39  1  0
 24 40  1  0
M  END
$$$$

     RDKit          3D

 40 43  0  0  0  0  0  0  0  0999 V2000
    5.8403    3.6348    1.1798 C   0  0  0  0  0  0  0  0  0  0  0  0
    5.6885    2.6571    2.1610 C   0  0  0  0  0  0  0  0  0  0  0  0
    4.4927    1.9777    2.2850 C   0  0  0  0  0  0  0  0  0  0  0  0
    3.4142    2.2530    1.4391 C   0  0  0  0  0  0  0  0  0  0  0  0
    2.1323    1.5214    1.5799 C   0  0  0  0  0  0  0  0  0  0  0  0
    1.6361    1.1682    2.8265 C   0  0  0  0  0  0  0  0  0  0  0  0
    0.4410    0.4709    2.8864 C   0  0  0  0  0  0  0  0  0  0  0  0
   -0.2599    0.1102    1.8289 N   0  0  0  0  0  0  0  0  0  0  0  0
    0.2143    0.4591    0.6228 C   0  0  0  0  0  0  0  0  0  0  0  0
   -0.5868    0.0496   -0.5576 C   0  0  0  0  0  0  0  0  0  0  0  0
   -1.5628   -0.9140   -0.4305 C   0  0  0  0  0  0  0  0  0  0  0  0
   -2.3015   -1.2918   -1.5483 C   0  0  0  0  0  0  0  0  0  0  0  0
   -3.3497   -2.3363   -1.4469 C   0  0  0  0  0  0  0  0  0  0  0  0
   -3.5521   -3.2465   -2.4886 C   0  0  0  0  0  0  0  0  0  0  0  0
   -4.5364   -4.2119   -2.4103 C   0  0  0  0  0  0  0  0  0  0  0  0
   -5.3464   -4.2970   -1.2791 C   0  0  0  0  0  0  0  0  0  0  0  0
   -5.1531   -3.4018   -0.2357 C   0  0  0  0  0  0  0  0  0  0  0  0
   -4.1575   -2.4336   -0.3177 C   0  0  0  0  0  0  0  0  0  0  0  0
   -2.0252   -0.6591   -2.7504 C   0  0  0  0  0  0  0  0  0  0  0  0
   -1.0295    0.3023   -2.7730 C   0  0  0  0  0  0  0  0  0  0  0  0
   -0.3148    0.6565   -1.7223 N   0  0  0  0  0  0  0  0  0  0  0  0
    1.3859    1.1671    0.4582 C   0  0  0  0  0  0  0  0  0  0  0  0
    3.5745    3.2316    0.4616 C   0  0  0  0  0  0  0  0  0  0  0  0
    4.7755    3.9201    0.3354 C   0  0  0  0  0  0  0  0  0  0  0  0
    6.7770    4.1677    1.0801 H   0  0  0  0  0  0  0  0  0  0  0  0
    6.5134    2.4190    2.8256 H   0  0  0  0  0  0  0  0  0  0  0  0
    4.3856    1.2200    3.0499 H   0  0  0  0  0  0  0  0  0  0  0  0
    2.1592    1.4300    3.7439 H   0  0  0  0  0  0  0  0  0  0  0  0
    0.0268    0.1901    3.8551 H   0  0  0  0  0  0  0  0  0  0  0  0
   -1.7391   -1.3760    0.5322 H   0  0  0  0  0  0  0  0  0  0  0  0
   -2.9238   -3.1915   -3.3684 H   0  0  0  0  0  0  0  0  0  0  0  0
   -4.6702   -4.9081   -3.2299 H   0  0  0  0  0  0  0  0  0  0  0  0
   -6.1197   -5.0513   -1.2183 H   0  0  0  0  0  0  0  0  0  0  0  0
   -5.7744   -3.4486    0.6482 H   0  0  0  0  0  0  0  0  0  0  0  0
   -4.0257   -1.7417    0.5047 H   0  0  0  0  0  0  0  0  0  0  0  0
   -2.5742   -0.8983   -3.6589 H   0  0  0  0  0  0  0  0  0  0  0  0
   -0.8020    0.8231   -3.7047 H   0  0  0  0  0  0  0  0  0  0  0  0
    1.7224    1.4211   -0.5385 H   0  0  0  0  0  0  0  0  0  0  0  0
    2.7546    3.4721   -0.2012 H   0  0  0  0  0  0  0  0  0  0  0  0
    4.8706    4.6849   -0.4241 H   0  0  0  0  0  0  0  0  0  0  0  0
  1  2  2  0
  2  3  1  0
  3  4  2  0
  4  5  1  0
  5  6  2  0
  6  7  1  0
  7  8  2  0
  8  9  1  0
  9 10  1  0
 10 11  2  0
 11 12  1  0
 12 13  1  0
 13 14  2  0
 14 15  1  0
 15 16  2  0
 16 17  1  0
 17 18  2  0
 12 19  2  0
 19 20  1  0
 20 21  2  0
  9 22  2  0
  4 23  1  0
 23 24  2  0
 24  1  1  0
 22  5  1  0
 21 10  1  0
 18 13  1  0
  1 25  1  0
  2 26  1  0
  3 27  1  0
  6 28  1  0
  7 29  1  0
 11 30  1  0
 14 31  1  0
 15 32  1  0
 16 33  1  0
 17 34  1  0
 18 35  1  0
 19 36  1  0
 20 37  1  0
 22 38  1  0
 23 39  1  0
 24 40  1  0
M  END
$$$$

     RDKit          3D

 40 43  0  0  0  0  0  0  0  0999 V2000
   -6.5007   -1.2799   -2.2648 C   0  0  0  0  0  0  0  0  0  0  0  0
   -6.6181   -0.7198   -0.9964 C   0  0  0  0  0  0  0  0  0  0  0  0
   -5.4896   -0.4964   -0.2313 C   0  0  0  0  0  0  0  0  0  0  0  0
   -4.2144   -0.8225   -0.7057 C   0  0  0  0  0  0  0  0  0  0  0  0
   -3.0050   -0.5836    0.1250 C   0  0  0  0  0  0  0  0  0  0  0  0
   -3.0316   -0.7499    1.4992 C   0  0  0  0  0  0  0  0  0  0  0  0
   -1.8673   -0.5316    2.2135 C   0  0  0  0  0  0  0  0  0  0  0  0
   -0.7230   -0.1759    1.6714 N   0  0  0  0  0  0  0  0  0  0  0  0
   -0.6944   -0.0069    0.3400 C   0  0  0  0  0  0  0  0  0  0  0  0
    0.6027    0.3993   -0.2561 C   0  0  0  0  0  0  0  0  0  0  0  0
    1.7574    0.3776    0.4981 C   0  0  0  0  0  0  0  0  0  0  0  0
    2.9605    0.7672   -0.0818 C   0  0  0  0  0  0  0  0  0  0  0  0
    4.2240    0.7620    0.6969 C   0  0  0  0  0  0  0  0  0  0  0  0
    5.1854    1.7599    0.5029 C   0  0  0  0  0  0  0  0  0  0  0  0
    6.3679    1.7619    1.2157 C   0  0  0  0  0  0  0  0  0  0  0  0
    6.6243    0.7585    2.1456 C   0  0  0  0  0  0  0  0  0  0  0  0
    5.6789   -0.2392    2.3476 C   0  0  0  0  0  0  0  0  0  0  0  0
    4.4865   -0.2355    1.6329 C   0  0  0  0  0  0  0  0  0  0  0  0
    2.9397    1.1620   -1.4100 C   0  0  0  0  0  0  0  0  0  0  0  0
    1.7300    1.1497   -2.0827 C   0  0  0  0  0  0  0  0  0  0  0  0
    0.5855    0.7817   -1.5430 N   0  0  0  0  0  0  0  0  0  0  0  0
   -1.8033   -0.1935   -0.4583 C   0  0  0  0  0  0  0  0  0  0  0  0
   -4.1060   -1.3852   -1.9753 C   0  0  0  0  0  0  0  0  0  0  0  0
   -5.2410   -1.6181   -2.7446 C   0  0  0  0  0  0  0  0  0  0  0  0
   -7.3819   -1.4556   -2.8715 H   0  0  0  0  0  0  0  0  0  0  0  0
   -7.5941   -0.4499   -0.6080 H   0  0  0  0  0  0  0  0  0  0  0  0
   -5.5952   -0.0624    0.7537 H   0  0  0  0  0  0  0  0  0  0  0  0
   -3.9373   -1.0530    2.0203 H   0  0  0  0  0  0  0  0  0  0  0  0
   -1.8689   -0.6607    3.2976 H   0  0  0  0  0  0  0  0  0  0  0  0
    1.7207    0.0680    1.5371 H   0  0  0  0  0  0  0  0  0  0  0  0
    4.9958    2.5444   -0.2173 H   0  0  0  0  0  0  0  0  0  0  0  0
    7.0915    2.5523    1.0524 H   0  0  0  0  0  0  0  0  0  0  0  0
    7.5534    0.7516    2.7029 H   0  0  0  0  0  0  0  0  0  0  0  0
    5.8644   -1.0325    3.0608 H   0  0  0  0  0  0  0  0  0  0  0  0
    3.7640   -1.0227    1.8037 H   0  0  0  0  0  0  0  0  0  0  0  0
    3.8465    1.4695   -1.9248 H   0  0  0  0  0  0  0  0  0  0  0  0
    1.6917    1.4570   -3.1283 H   0  0  0  0  0  0  0  0  0  0  0  0
   -1.7337   -0.0271   -1.5252 H   0  0  0  0  0  0  0  0  0  0  0  0
   -3.1342   -1.6518   -2.3702 H   0  0  0  0  0  0  0  0  0  0  0  0
   -5.1309   -2.0689   -3.7218 H   0  0  0  0  0  0  0  0  0  0  0  0
  1  2  2  0
  2  3  1  0
  3  4  2  0
  4  5  1  0
  5  6  2  0
  6  7  1  0
  7  8  2  0
  8  9  1  0
  9 10  1  0
 10 11  2  0
 11 12  1  0
 12 13  1  0
 13 14  2  0
 14 15  1  0
 15 16  2  0
 16 17  1  0
 17 18  2  0
 12 19  2  0
 19 20  1  0
 20 21  2  0
  9 22  2  0
  4 23  1  0
 23 24  2  0
 24  1  1  0
 22  5  1  0
 21 10  1  0
 18 13  1  0
  1 25  1  0
  2 26  1  0
  3 27  1  0
  6 28  1  0
  7 29  1  0
 11 30  1  0
 14 31  1  0
 15 32  1  0
 16 33  1  0
 17 34  1  0
 18 35  1  0
 19 36  1  0
 20 37  1  0
 22 38  1  0
 23 39  1  0
 24 40  1  0
M  END
$$$$

     RDKit          3D

 40 43  0  0  0  0  0  0  0  0999 V2000
    1.3585   -5.5993    1.0770 C   0  0  0  0  0  0  0  0  0  0  0  0
    2.2609   -5.3018    0.0515 C   0  0  0  0  0  0  0  0  0  0  0  0
    1.9949   -4.2706   -0.8291 C   0  0  0  0  0  0  0  0  0  0  0  0
    0.8307   -3.5131   -0.7130 C   0  0  0  0  0  0  0  0  0  0  0  0
    0.5604   -2.4039   -1.6664 C   0  0  0  0  0  0  0  0  0  0  0  0
    0.8862   -2.4938   -3.0123 C   0  0  0  0  0  0  0  0  0  0  0  0
    0.5998   -1.4200   -3.8405 C   0  0  0  0  0  0  0  0  0  0  0  0
    0.0314   -0.2887   -3.4202 N   0  0  0  0  0  0  0  0  0  0  0  0
   -0.2700   -0.1973   -2.1234 C   0  0  0  0  0  0  0  0  0  0  0  0
   -0.8675    1.0757   -1.6516 C   0  0  0  0  0  0  0  0  0  0  0  0
   -0.4807    1.6035   -0.4251 C   0  0  0  0  0  0  0  0  0  0  0  0
   -1.0503    2.7929    0.0130 C   0  0  0  0  0  0  0  0  0  0  0  0
   -0.6604    3.3656    1.3316 C   0  0  0  0  0  0  0  0  0  0  0  0
   -0.6037    4.7480    1.5228 C   0  0  0  0  0  0  0  0  0  0  0  0
   -0.2354    5.2834    2.7414 C   0  0  0  0  0  0  0  0  0  0  0  0
    0.0856    4.4400    3.8103 C   0  0  0  0  0  0  0  0  0  0  0  0
    0.0278    3.0616    3.6349 C   0  0  0  0  0  0  0  0  0  0  0  0
   -0.3422    2.5252    2.4055 C   0  0  0  0  0  0  0  0  0  0  0  0
   -1.9784    3.4103   -0.8122 C   0  0  0  0  0  0  0  0  0  0  0  0
   -2.3044    2.8072   -2.0162 C   0  0  0  0  0  0  0  0  0  0  0  0
   -1.7696    1.6628   -2.4430 N   0  0  0  0  0  0  0  0  0  0  0  0
   -0.0287   -1.2258   -1.2187 C   0  0  0  0  0  0  0  0  0  0  0  0
   -0.0664   -3.8067    0.3182 C   0  0  0  0  0  0  0  0  0  0  0  0
    0.1927   -4.8489    1.2002 C   0  0  0  0  0  0  0  0  0  0  0  0
    1.5646   -6.4015    1.7708 H   0  0  0  0  0  0  0  0  0  0  0  0
    3.1727   -5.8792   -0.0491 H   0  0  0  0  0  0  0  0  0  0  0  0
    2.6969   -4.0436   -1.6178 H   0  0  0  0  0  0  0  0  0  0  0  0
    1.3499   -3.3834   -3.4236 H   0  0  0  0  0  0  0  0  0  0  0  0
    0.8413   -1.4783   -4.8954 H   0  0  0  0  0  0  0  0  0  0  0  0
    0.2802    1.1073    0.1610 H   0  0  0  0  0  0  0  0  0  0  0  0
   -0.8434    5.4038    0.7010 H   0  0  0  0  0  0  0  0  0  0  0  0
   -0.1903    6.3555    2.8692 H   0  0  0  0  0  0  0  0  0  0  0  0
    0.3832    4.8539    4.7646 H   0  0  0  0  0  0  0  0  0  0  0  0
    0.2700    2.3991    4.4600 H   0  0  0  0  0  0  0  0  0  0  0  0
   -0.4058    1.4542    2.2904 H   0  0  0  0  0  0  0  0  0  0  0  0
   -2.4544    4.3430   -0.5330 H   0  0  0  0  0  0  0  0  0  0  0  0
   -3.0408    3.2765   -2.6642 H   0  0  0  0  0  0  0  0  0  0  0  0
   -0.2966   -1.1086   -0.1816 H   0  0  0  0  0  0  0  0  0  0  0  0
   -0.9802   -3.2310    0.4262 H   0  0  0  0  0  0  0  0  0  0  0  0
   -0.5183   -5.0736    1.9870 H   0  0  0  0  0  0  0  0  0  0  0  0
  1  2  2  0
  2  3  1  0
  3  4  2  0
  4  5  1  0
  5  6  2  0
  6  7  1  0
  7  8  2  0
  8  9  1  0
  9 10  1  0
 10 11  2  0
 11 12  1  0
 12 13  1  0
 13 14  2  0
 14 15  1  0
 15 16  2  0
 16 17  1  0
 17 18  2  0
 12 19  2  0
 19 20  1  0
 20 21  2  0
  9 22  2  0
  4 23  1  0
 23 24  2  0
 24  1  1  0
 22  5  1  0
 21 10  1  0
 18 13  1  0
  1 25  1  0
  2 26  1  0
  3 27  1  0
  6 28  1  0
  7 29  1  0
 11 30  1  0
 14 31  1  0
 15 32  1  0
 16 33  1  0
 17 34  1  0
 18 35  1  0
 19 36  1  0
 20 37  1  0
 22 38  1  0
 23 39  1  0
 24 40  1  0
M  END
$$$$

     RDKit          3D

 40 43  0  0  0  0  0  0  0  0999 V2000
   -2.1936    5.3089   -4.0044 C   0  0  0  0  0  0  0  0  0  0  0  0
   -1.6287    5.8398   -2.8458 C   0  0  0  0  0  0  0  0  0  0  0  0
   -0.9317    5.0219   -1.9768 C   0  0  0  0  0  0  0  0  0  0  0  0
   -0.7794    3.6540   -2.2339 C   0  0  0  0  0  0  0  0  0  0  0  0
   -0.0345    2.7805   -1.2925 C   0  0  0  0  0  0  0  0  0  0  0  0
    1.0996    3.2256   -0.6353 C   0  0  0  0  0  0  0  0  0  0  0  0
    1.7443    2.3566    0.2275 C   0  0  0  0  0  0  0  0  0  0  0  0
    1.3441    1.1281    0.4728 N   0  0  0  0  0  0  0  0  0  0  0  0
    0.2379    0.6962   -0.1526 C   0  0  0  0  0  0  0  0  0  0  0  0
   -0.2160   -0.6849    0.1522 C   0  0  0  0  0  0  0  0  0  0  0  0
    0.5021   -1.4837    1.0165 C   0  0  0  0  0  0  0  0  0  0  0  0
    0.0507   -2.7718    1.2851 C   0  0  0  0  0  0  0  0  0  0  0  0
    0.7892   -3.6574    2.2227 C   0  0  0  0  0  0  0  0  0  0  0  0
    0.9175   -5.0273    1.9685 C   0  0  0  0  0  0  0  0  0  0  0  0
    1.6034   -5.8550    2.8393 C   0  0  0  0  0  0  0  0  0  0  0  0
    2.1780   -5.3337    3.9969 C   0  0  0  0  0  0  0  0  0  0  0  0
    2.0519   -3.9756    4.2631 C   0  0  0  0  0  0  0  0  0  0  0  0
    1.3687   -3.1432    3.3804 C   0  0  0  0  0  0  0  0  0  0  0  0
   -1.1064   -3.2001    0.6583 C   0  0  0  0  0  0  0  0  0  0  0  0
   -1.7583   -2.3216   -0.1878 C   0  0  0  0  0  0  0  0  0  0  0  0
   -1.3433   -1.1014   -0.4452 N   0  0  0  0  0  0  0  0  0  0  0  0
   -0.4671    1.4826   -1.0379 C   0  0  0  0  0  0  0  0  0  0  0  0
   -1.3466    3.1310   -3.3962 C   0  0  0  0  0  0  0  0  0  0  0  0
   -2.0445    3.9533   -4.2762 C   0  0  0  0  0  0  0  0  0  0  0  0
   -2.7448    5.9465   -4.6848 H   0  0  0  0  0  0  0  0  0  0  0  0
   -1.7424    6.8936   -2.6156 H   0  0  0  0  0  0  0  0  0  0  0  0
   -0.5037    5.4414   -1.0751 H   0  0  0  0  0  0  0  0  0  0  0  0
    1.4929    4.2290   -0.7885 H   0  0  0  0  0  0  0  0  0  0  0  0
    2.6416    2.6860    0.7519 H   0  0  0  0  0  0  0  0  0  0  0  0
    1.4121   -1.1085    1.4693 H   0  0  0  0  0  0  0  0  0  0  0  0
    0.4755   -5.4448    1.0734 H   0  0  0  0  0  0  0  0  0  0  0  0
    1.6953   -6.9106    2.6141 H   0  0  0  0  0  0  0  0  0  0  0  0
    2.7125   -5.9802    4.6810 H   0  0  0  0  0  0  0  0  0  0  0  0
    2.4793   -3.5517    5.1610 H   0  0  0  0  0  0  0  0  0  0  0  0
    1.2826   -2.0871    3.6038 H   0  0  0  0  0  0  0  0  0  0  0  0
   -1.5040   -4.1988    0.8196 H   0  0  0  0  0  0  0  0  0  0  0  0
   -2.6811   -2.6324   -0.6823 H   0  0  0  0  0  0  0  0  0  0  0  0
   -1.3536    1.0911   -1.5189 H   0  0  0  0  0  0  0  0  0  0  0  0
   -1.2330    2.0773   -3.6296 H   0  0  0  0  0  0  0  0  0  0  0  0
   -2.4665    3.5264   -5.1779 H   0  0  0  0  0  0  0  0  0  0  0  0
  1  2  2  0
  2  3  1  0
  3  4  2  0
  4  5  1  0
  5  6  2  0
  6  7  1  0
  7  8  2  0
  8  9  1  0
  9 10  1  0
 10 11  2  0
 11 12  1  0
 12 13  1  0
 13 14  2  0
 14 15  1  0
 15 16  2  0
 16 17  1  0
 17 18  2  0
 12 19  2  0
 19 20  1  0
 20 21  2  0
  9 22  2  0
  4 23  1  0
 23 24  2  0
 24  1  1  0
 22  5  1  0
 21 10  1  0
 18 13  1  0
  1 25  1  0
  2 26  1  0
  3 27  1  0
  6 28  1  0
  7 29  1  0
 11 30  1  0
 14 31  1  0
 15 32  1  0
 16 33  1  0
 17 34  1  0
 18 35  1  0
 19 36  1  0
 20 37  1  0
 22 38  1  0
 23 39  1  0
 24 40  1  0
M  END
$$$$

     RDKit          3D

 40 43  0  0  0  0  0  0  0  0999 V2000
   -4.3152    1.8278    3.4762 C   0  0  0  0  0  0  0  0  0  0  0  0
   -3.7129    1.0844    4.5013 C   0  0  0  0  0  0  0  0  0  0  0  0
   -2.6993    0.1930    4.2052 C   0  0  0  0  0  0  0  0  0  0  0  0
   -2.2636    0.0106    2.8910 C   0  0  0  0  0  0  0  0  0  0  0  0
   -1.1706   -0.9511    2.5757 C   0  0  0  0  0  0  0  0  0  0  0  0
   -1.0373   -2.1579    3.2470 C   0  0  0  0  0  0  0  0  0  0  0  0
   -0.0102   -3.0118    2.8801 C   0  0  0  0  0  0  0  0  0  0  0  0
    0.8730   -2.7383    1.9186 N   0  0  0  0  0  0  0  0  0  0  0  0
    0.7533   -1.5689    1.2846 C   0  0  0  0  0  0  0  0  0  0  0  0
    1.7375   -1.2679    0.2170 C   0  0  0  0  0  0  0  0  0  0  0  0
    1.3335   -0.5814   -0.9204 C   0  0  0  0  0  0  0  0  0  0  0  0
    2.2633   -0.3045   -1.9181 C   0  0  0  0  0  0  0  0  0  0  0  0
    1.8518    0.4468   -3.1365 C   0  0  0  0  0  0  0  0  0  0  0  0
    2.3846    0.1285   -4.3889 C   0  0  0  0  0  0  0  0  0  0  0  0
    2.0144    0.8327   -5.5187 C   0  0  0  0  0  0  0  0  0  0  0  0
    1.0870    1.8793   -5.4190 C   0  0  0  0  0  0  0  0  0  0  0  0
    0.5468    2.2016   -4.1759 C   0  0  0  0  0  0  0  0  0  0  0  0
    0.9216    1.4902   -3.0391 C   0  0  0  0  0  0  0  0  0  0  0  0
    3.5675   -0.7429   -1.7323 C   0  0  0  0  0  0  0  0  0  0  0  0
    3.8807   -1.4171   -0.5620 C   0  0  0  0  0  0  0  0  0  0  0  0
    2.9952   -1.6804    0.4019 N   0  0  0  0  0  0  0  0  0  0  0  0
   -0.2448   -0.6506    1.5834 C   0  0  0  0  0  0  0  0  0  0  0  0
   -2.8694    0.7489    1.8669 C   0  0  0  0  0  0  0  0  0  0  0  0
   -3.8877    1.6509    2.1621 C   0  0  0  0  0  0  0  0  0  0  0  0
   -5.1065    2.5295    3.6992 H   0  0  0  0  0  0  0  0  0  0  0  0
   -4.0405    1.2160    5.5253 H   0  0  0  0  0  0  0  0  0  0  0  0
   -2.2323   -0.3704    4.9979 H   0  0  0  0  0  0  0  0  0  0  0  0
   -1.7210   -2.4419    4.0381 H   0  0  0  0  0  0  0  0  0  0  0  0
    0.0975   -3.9663    3.3825 H   0  0  0  0  0  0  0  0  0  0  0  0
    0.2986   -0.2982   -1.0419 H   0  0  0  0  0  0  0  0  0  0  0  0
    3.0939   -0.6812   -4.4706 H   0  0  0  0  0  0  0  0  0  0  0  0
    2.4369    0.5764   -6.4836 H   0  0  0  0  0  0  0  0  0  0  0  0
    0.7908    2.4358   -6.2968 H   0  0  0  0  0  0  0  0  0  0  0  0
   -0.1664    3.0155   -4.0883 H   0  0  0  0  0  0  0  0  0  0  0  0
    0.5090    1.7564   -2.0786 H   0  0  0  0  0  0  0  0  0  0  0  0
    4.3380   -0.5579   -2.4735 H   0  0  0  0  0  0  0  0  0  0  0  0
    4.8960   -1.7599   -0.3946 H   0  0  0  0  0  0  0  0  0  0  0  0
   -0.2788    0.3054    1.0817 H   0  0  0  0  0  0  0  0  0  0  0  0
   -2.5617    0.6046    0.8431 H   0  0  0  0  0  0  0  0  0  0  0  0
   -4.3531    2.2138    1.3598 H   0  0  0  0  0  0  0  0  0  0  0  0
  1  2  2  0
  2  3  1  0
  3  4  2  0
  4  5  1  0
  5  6  2  0
  6  7  1  0
  7  8  2  0
  8  9  1  0
  9 10  1  0
 10 11  2  0
 11 12  1  0
 12 13  1  0
 13 14  2  0
 14 15  1  0
 15 16  2  0
 16 17  1  0
 17 18  2  0
 12 19  2  0
 19 20  1  0
 20 21  2  0
  9 22  2  0
  4 23  1  0
 23 24  2  0
 24  1  1  0
 22  5  1  0
 21 10  1  0
 18 13  1  0
  1 25  1  0
  2 26  1  0
  3 27  1  0
  6 28  1  0
  7 29  1  0
 11 30  1  0
 14 31  1  0
 15 32  1  0
 16 33  1  0
 17 34  1  0
 18 35  1  0
 19 36  1  0
 20 37  1  0
 22 38  1  0
 23 39  1  0
 24 40  1  0
M  END
$$$$
