
     RDKit          3D

 44 45  0  0  0  0  0  0  0  0999 V2000
    0.5752    2.3797   -4.7908 C   0  0  0  0  0  0  0  0  0  0  0  0
    0.9940    2.6705   -3.3419 C   0  0  0  0  0  0  0  0  0  0  0  0
    0.0475    3.7222   -2.7694 C   0  0  0  0  0  0  0  0  0  0  0  0
    2.4173    3.2427   -3.3304 C   0  0  0  0  0  0  0  0  0  0  0  0
    0.9644    1.3834   -2.5319 C   0  0  0  0  0  0  0  0  0  0  0  0
    1.7358    0.2953   -2.9329 C   0  0  0  0  0  0  0  0  0  0  0  0
    1.7080   -0.8725   -2.1716 C   0  0  0  0  0  0  0  0  0  0  0  0
    0.9951   -1.0169   -1.0717 N   0  0  0  0  0  0  0  0  0  0  0  0
    0.2437    0.0321   -0.6850 C   0  0  0  0  0  0  0  0  0  0  0  0
   -0.5580   -0.1342    0.5572 C   0  0  0  0  0  0  0  0  0  0  0  0
   -0.3645   -1.2413    1.3632 C   0  0  0  0  0  0  0  0  0  0  0  0
   -1.1097   -1.3996    2.5248 C   0  0  0  0  0  0  0  0  0  0  0  0
   -0.8918   -2.6185    3.4095 C   0  0  0  0  0  0  0  0  0  0  0  0
   -1.7916   -2.5902    4.6458 C   0  0  0  0  0  0  0  0  0  0  0  0
   -1.2069   -3.8890    2.6126 C   0  0  0  0  0  0  0  0  0  0  0  0
    0.5693   -2.6481    3.8680 C   0  0  0  0  0  0  0  0  0  0  0  0
   -2.0311   -0.4064    2.8207 C   0  0  0  0  0  0  0  0  0  0  0  0
   -2.1659    0.6755    1.9480 C   0  0  0  0  0  0  0  0  0  0  0  0
   -1.4574    0.8243    0.8421 N   0  0  0  0  0  0  0  0  0  0  0  0
    0.2018    1.2267   -1.3853 C   0  0  0  0  0  0  0  0  0  0  0  0
   -0.4273    1.9444   -4.8227 H   0  0  0  0  0  0  0  0  0  0  0  0
    0.5679    3.3097   -5.3677 H   0  0  0  0  0  0  0  0  0  0  0  0
    1.2621    1.7011   -5.2870 H   0  0  0  0  0  0  0  0  0  0  0  0
    0.1075    4.6367   -3.3803 H   0  0  0  0  0  0  0  0  0  0  0  0
   -0.9851    3.3828   -2.7871 H   0  0  0  0  0  0  0  0  0  0  0  0
    0.3157    3.9926   -1.7499 H   0  0  0  0  0  0  0  0  0  0  0  0
    3.1394    2.5432   -3.7511 H   0  0  0  0  0  0  0  0  0  0  0  0
    2.7211    3.4813   -2.3103 H   0  0  0  0  0  0  0  0  0  0  0  0
    2.4563    4.1544   -3.9337 H   0  0  0  0  0  0  0  0  0  0  0  0
    2.3572    0.3381   -3.8196 H   0  0  0  0  0  0  0  0  0  0  0  0
    2.3092   -1.7290   -2.4732 H   0  0  0  0  0  0  0  0  0  0  0  0
    0.3674   -1.9800    1.0822 H   0  0  0  0  0  0  0  0  0  0  0  0
   -1.6160   -3.4770    5.2614 H   0  0  0  0  0  0  0  0  0  0  0  0
   -2.8436   -2.5909    4.3775 H   0  0  0  0  0  0  0  0  0  0  0  0
   -1.5917   -1.7228    5.2632 H   0  0  0  0  0  0  0  0  0  0  0  0
   -1.0594   -4.7671    3.2584 H   0  0  0  0  0  0  0  0  0  0  0  0
   -0.5512   -3.9992    1.7474 H   0  0  0  0  0  0  0  0  0  0  0  0
   -2.2381   -3.8904    2.2741 H   0  0  0  0  0  0  0  0  0  0  0  0
    0.8195   -1.7473    4.4244 H   0  0  0  0  0  0  0  0  0  0  0  0
    1.2581   -2.7459    3.0277 H   0  0  0  0  0  0  0  0  0  0  0  0
    0.7267   -3.5089    4.5319 H   0  0  0  0  0  0  0  0  0  0  0  0
   -2.6460   -0.4382    3.7098 H   0  0  0  0  0  0  0  0  0  0  0  0
   -2.8887    1.4580    2.1694 H   0  0  0  0  0  0  0  0  0  0  0  0
   -0.4360    2.0185   -1.0259 H   0  0  0  0  0  0  0  0  0  0  0  0
  1  2  1  0
  2  3  1  0
  2  4  1  0
  2  5  1  0
  5  6  2  0
  6  7  1  0
  7  8  2  0
  8  9  1  0
  9 10  1  0
 10 11  2  0
 11 12  1  0
 12 13  1  0
 13 14  1  0
 13 15  1  0
 13 16  1  0
 12 17  2  0
 17 18  1  0
 18 19  2  0
  9 20  2  0
 20  5  1  0
 19 10  1  0
  1 21  1  0
  1 22  1  0
  1 23  1  0
  3 24  1  0
  3 25  1  0
  3 26  1  0
  4 27  1  0
  4 28  1  0
  4 29  1  0
  6 30  1  0
  7 31  1  0
 11 32  1  0
 14 33  1  0
 14 34  1  0
 14 35  1  0
 15 36  1  0
 15 37  1  0
 15 38  1  0
 16 39  1  0
 16 40  1  0
 16 41  1  0
 17 42  1  0
 18 43  1  0
 20 44  1  0
M  END
$$$$

     RDKit          3D

 44 45  0  0  0  0  0  0  0  0999 V2000
    3.5985   -0.3079    3.8986 C   0  0  0  0  0  0  0  0  0  0  0  0
    2.4781    0.6876    3.5677 C   0  0  0  0  0  0  0  0  0  0  0  0
    1.8137    1.1553    4.8689 C   0  0  0  0  0  0  0  0  0  0  0  0
    3.0995    1.9009    2.8816 C   0  0  0  0  0  0  0  0  0  0  0  0
    1.4391    0.0104    2.6863 C   0  0  0  0  0  0  0  0  0  0  0  0
    0.7829   -1.1310    3.1384 C   0  0  0  0  0  0  0  0  0  0  0  0
   -0.1708   -1.7333    2.3182 C   0  0  0  0  0  0  0  0  0  0  0  0
   -0.4946   -1.2919    1.1199 N   0  0  0  0  0  0  0  0  0  0  0  0
    0.1393   -0.1888    0.6792 C   0  0  0  0  0  0  0  0  0  0  0  0
   -0.2268    0.3064   -0.6750 C   0  0  0  0  0  0  0  0  0  0  0  0
   -1.1201   -0.4031   -1.4591 C   0  0  0  0  0  0  0  0  0  0  0  0
   -1.4528    0.0568   -2.7277 C   0  0  0  0  0  0  0  0  0  0  0  0
   -2.4364   -0.7204   -3.5913 C   0  0  0  0  0  0  0  0  0  0  0  0
   -1.9471   -2.1636   -3.7529 C   0  0  0  0  0  0  0  0  0  0  0  0
   -2.5766   -0.1024   -4.9839 C   0  0  0  0  0  0  0  0  0  0  0  0
   -3.8097   -0.7160   -2.9120 C   0  0  0  0  0  0  0  0  0  0  0  0
   -0.8594    1.2397   -3.1438 C   0  0  0  0  0  0  0  0  0  0  0  0
    0.0253    1.8931   -2.2867 C   0  0  0  0  0  0  0  0  0  0  0  0
    0.3463    1.4551   -1.0828 N   0  0  0  0  0  0  0  0  0  0  0  0
    1.0946    0.4796    1.4299 C   0  0  0  0  0  0  0  0  0  0  0  0
    3.2332   -1.1585    4.4674 H   0  0  0  0  0  0  0  0  0  0  0  0
    4.0712   -0.6784    2.9857 H   0  0  0  0  0  0  0  0  0  0  0  0
    4.3664    0.1834    4.5044 H   0  0  0  0  0  0  0  0  0  0  0  0
    1.0251    1.8775    4.6574 H   0  0  0  0  0  0  0  0  0  0  0  0
    2.5563    1.6281    5.5175 H   0  0  0  0  0  0  0  0  0  0  0  0
    1.3799    0.3251    5.4261 H   0  0  0  0  0  0  0  0  0  0  0  0
    3.8537    2.3483    3.5457 H   0  0  0  0  0  0  0  0  0  0  0  0
    2.3560    2.6682    2.6722 H   0  0  0  0  0  0  0  0  0  0  0  0
    3.5996    1.6272    1.9575 H   0  0  0  0  0  0  0  0  0  0  0  0
    0.9914   -1.5553    4.1122 H   0  0  0  0  0  0  0  0  0  0  0  0
   -0.6977   -2.6202    2.6650 H   0  0  0  0  0  0  0  0  0  0  0  0
   -1.5634   -1.3099   -1.0774 H   0  0  0  0  0  0  0  0  0  0  0  0
   -1.9114   -2.6955   -2.8005 H   0  0  0  0  0  0  0  0  0  0  0  0
   -2.6442   -2.7098   -4.4058 H   0  0  0  0  0  0  0  0  0  0  0  0
   -0.9640   -2.1951   -4.2079 H   0  0  0  0  0  0  0  0  0  0  0  0
   -1.6245   -0.0719   -5.5084 H   0  0  0  0  0  0  0  0  0  0  0  0
   -2.9813    0.9021   -4.9391 H   0  0  0  0  0  0  0  0  0  0  0  0
   -3.2648   -0.6982   -5.5920 H   0  0  0  0  0  0  0  0  0  0  0  0
   -4.1847    0.3000   -2.7969 H   0  0  0  0  0  0  0  0  0  0  0  0
   -4.5274   -1.2715   -3.5295 H   0  0  0  0  0  0  0  0  0  0  0  0
   -3.7764   -1.1852   -1.9284 H   0  0  0  0  0  0  0  0  0  0  0  0
   -1.0594    1.6752   -4.1158 H   0  0  0  0  0  0  0  0  0  0  0  0
    0.4888    2.8240   -2.6040 H   0  0  0  0  0  0  0  0  0  0  0  0
    1.5543    1.3638    1.0211 H   0  0  0  0  0  0  0  0  0  0  0  0
  1  2  1  0
  2  3  1  0
  2  4  1  0
  2  5  1  0
  5  6  2  0
  6  7  1  0
  7  8  2  0
  8  9  1  0
  9 10  1  0
 10 11  2  0
 11 12  1  0
 12 13  1  0
 13 14  1  0
 13 15  1  0
 13 16  1  0
 12 17  2  0
 17 18  1  0
 18 19  2  0
  9 20  2  0
 20  5  1  0
 19 10  1  0
  1 21  1  0
  1 22  1  0
  1 23  1  0
  3 24  1  0
  3 25  1  0
  3 26  1  0
  4 27  1  0
  4 28  1  0
  4 29  1  0
  6 30  1  0
  7 31  1  0
 11 32  1  0
 14 33  1  0
 14 34  1  0
 14 35  1  0
 15 36  1  0
 15 37  1  0
 15 38  1  0
 16 39  1  0
 16 40  1  0
 16 41  1  0
 17 42  1  0
 18 43  1  0
 20 44  1  0
M  END
$$$$

     RDKit          3D

 44 45  0  0  0  0  0  0  0  0999 V2000
    0.6946   -0.8639   -5.1720 C   0  0  0  0  0  0  0  0  0  0  0  0
   -0.5685   -0.6895   -4.3203 C   0  0  0  0  0  0  0  0  0  0  0  0
   -1.0473    0.7519   -4.4540 C   0  0  0  0  0  0  0  0  0  0  0  0
   -1.6670   -1.6181   -4.8553 C   0  0  0  0  0  0  0  0  0  0  0  0
   -0.2588   -1.0429   -2.8737 C   0  0  0  0  0  0  0  0  0  0  0  0
    0.1679   -2.3280   -2.5504 C   0  0  0  0  0  0  0  0  0  0  0  0
    0.4521   -2.6326   -1.2197 C   0  0  0  0  0  0  0  0  0  0  0  0
    0.3550   -1.7686   -0.2273 N   0  0  0  0  0  0  0  0  0  0  0  0
   -0.0638   -0.5274   -0.5360 C   0  0  0  0  0  0  0  0  0  0  0  0
   -0.1791    0.4429    0.5856 C   0  0  0  0  0  0  0  0  0  0  0  0
    0.2681    0.0980    1.8525 C   0  0  0  0  0  0  0  0  0  0  0  0
    0.1666    1.0075    2.8930 C   0  0  0  0  0  0  0  0  0  0  0  0
    0.6676    0.7231    4.3023 C   0  0  0  0  0  0  0  0  0  0  0  0
   -0.5034    0.8088    5.2923 C   0  0  0  0  0  0  0  0  0  0  0  0
    1.7295    1.7624    4.6823 C   0  0  0  0  0  0  0  0  0  0  0  0
    1.2889   -0.6656    4.4072 C   0  0  0  0  0  0  0  0  0  0  0  0
   -0.4127    2.2412    2.6026 C   0  0  0  0  0  0  0  0  0  0  0  0
   -0.8378    2.5004    1.2996 C   0  0  0  0  0  0  0  0  0  0  0  0
   -0.7288    1.6385    0.3068 N   0  0  0  0  0  0  0  0  0  0  0  0
   -0.3788   -0.1394   -1.8303 C   0  0  0  0  0  0  0  0  0  0  0  0
    1.0509   -1.8922   -5.1675 H   0  0  0  0  0  0  0  0  0  0  0  0
    1.4958   -0.2196   -4.8169 H   0  0  0  0  0  0  0  0  0  0  0  0
    0.4769   -0.6030   -6.2124 H   0  0  0  0  0  0  0  0  0  0  0  0
   -1.2746    0.9662   -5.5085 H   0  0  0  0  0  0  0  0  0  0  0  0
   -0.2858    1.4602   -4.1341 H   0  0  0  0  0  0  0  0  0  0  0  0
   -1.9540    0.9272   -3.8798 H   0  0  0  0  0  0  0  0  0  0  0  0
   -2.5849   -1.5128   -4.2740 H   0  0  0  0  0  0  0  0  0  0  0  0
   -1.8877   -1.3659   -5.8971 H   0  0  0  0  0  0  0  0  0  0  0  0
   -1.3640   -2.6588   -4.8357 H   0  0  0  0  0  0  0  0  0  0  0  0
    0.2831   -3.0942   -3.3079 H   0  0  0  0  0  0  0  0  0  0  0  0
    0.7834   -3.6357   -0.9582 H   0  0  0  0  0  0  0  0  0  0  0  0
    0.6945   -0.8827    2.0045 H   0  0  0  0  0  0  0  0  0  0  0  0
   -0.9594    1.7926    5.2965 H   0  0  0  0  0  0  0  0  0  0  0  0
   -1.2731    0.0754    5.0453 H   0  0  0  0  0  0  0  0  0  0  0  0
   -0.1502    0.6067    6.3075 H   0  0  0  0  0  0  0  0  0  0  0  0
    2.1074    1.5606    5.6882 H   0  0  0  0  0  0  0  0  0  0  0  0
    2.5674    1.7318    3.9850 H   0  0  0  0  0  0  0  0  0  0  0  0
    1.3236    2.7724    4.6897 H   0  0  0  0  0  0  0  0  0  0  0  0
    1.6462   -0.8294    5.4364 H   0  0  0  0  0  0  0  0  0  0  0  0
    0.5655   -1.4477    4.1861 H   0  0  0  0  0  0  0  0  0  0  0  0
    2.1440   -0.7762    3.7448 H   0  0  0  0  0  0  0  0  0  0  0  0
   -0.5332    3.0005    3.3633 H   0  0  0  0  0  0  0  0  0  0  0  0
   -1.2889    3.4603    1.0567 H   0  0  0  0  0  0  0  0  0  0  0  0
   -0.7273    0.8657   -1.9969 H   0  0  0  0  0  0  0  0  0  0  0  0
  1  2  1  0
  2  3  1  0
  2  4  1  0
  2  5  1  0
  5  6  2  0
  6  7  1  0
  7  8  2  0
  8  9  1  0
  9 10  1  0
 10 11  2  0
 11 12  1  0
 12 13  1  0
 13 14  1  0
 13 15  1  0
 13 16  1  0
 12 17  2  0
 17 18  1  0
 18 19  2  0
  9 20  2  0
 20  5  1  0
 19 10  1  0
  1 21  1  0
  1 22  1  0
  1 23  1  0
  3 24  1  0
  3 25  1  0
  3 26  1  0
  4 27  1  0
  4 28  1  0
  4 29  1  0
  6 30  1  0
  7 31  1  0
 11 32  1  0
 14 33  1  0
 14 34  1  0
 14 35  1  0
 15 36  1  0
 15 37  1  0
 15 38  1  0
 16 39  1  0
 16 40  1  0
 16 41  1  0
 17 42  1  0
 18 43  1  0
 20 44  1  0
M  END
$$$$

     RDKit          3D

 44 45  0  0  0  0  0  0  0  0999 V2000
    2.3872    2.7226    2.9129 C   0  0  0  0  0  0  0  0  0  0  0  0
    2.0933    1.4041    3.6213 C   0  0  0  0  0  0  0  0  0  0  0  0
    3.4270    0.7657    4.0390 C   0  0  0  0  0  0  0  0  0  0  0  0
    1.2602    1.7042    4.8733 C   0  0  0  0  0  0  0  0  0  0  0  0
    1.3322    0.4417    2.7228 C   0  0  0  0  0  0  0  0  0  0  0  0
    0.9790   -0.8179    3.2027 C   0  0  0  0  0  0  0  0  0  0  0  0
    0.2943   -1.6954    2.3626 C   0  0  0  0  0  0  0  0  0  0  0  0
   -0.0596   -1.4046    1.1256 N   0  0  0  0  0  0  0  0  0  0  0  0
    0.2739   -0.1853    0.6625 C   0  0  0  0  0  0  0  0  0  0  0  0
   -0.1327    0.1434   -0.7301 C   0  0  0  0  0  0  0  0  0  0  0  0
   -0.9061   -0.7533   -1.4506 C   0  0  0  0  0  0  0  0  0  0  0  0
   -1.2953   -0.4507   -2.7452 C   0  0  0  0  0  0  0  0  0  0  0  0
   -2.1489   -1.3814   -3.5943 C   0  0  0  0  0  0  0  0  0  0  0  0
   -2.5298   -2.6453   -2.8278 C   0  0  0  0  0  0  0  0  0  0  0  0
   -1.3644   -1.7914   -4.8492 C   0  0  0  0  0  0  0  0  0  0  0  0
   -3.4366   -0.6597   -4.0174 C   0  0  0  0  0  0  0  0  0  0  0  0
   -0.8642    0.7679   -3.2645 C   0  0  0  0  0  0  0  0  0  0  0  0
   -0.0872    1.6081   -2.4683 C   0  0  0  0  0  0  0  0  0  0  0  0
    0.2759    1.3248   -1.2284 N   0  0  0  0  0  0  0  0  0  0  0  0
    0.9611    0.7465    1.4231 C   0  0  0  0  0  0  0  0  0  0  0  0
    3.0116    2.5743    2.0338 H   0  0  0  0  0  0  0  0  0  0  0  0
    2.9286    3.3892    3.5997 H   0  0  0  0  0  0  0  0  0  0  0  0
    1.4742    3.2327    2.6157 H   0  0  0  0  0  0  0  0  0  0  0  0
    3.9920    1.4618    4.6643 H   0  0  0  0  0  0  0  0  0  0  0  0
    3.2775   -0.1394    4.6193 H   0  0  0  0  0  0  0  0  0  0  0  0
    4.0322    0.5202    3.1634 H   0  0  0  0  0  0  0  0  0  0  0  0
    1.0471    0.8044    5.4454 H   0  0  0  0  0  0  0  0  0  0  0  0
    1.8095    2.3835    5.5324 H   0  0  0  0  0  0  0  0  0  0  0  0
    0.3136    2.1719    4.6046 H   0  0  0  0  0  0  0  0  0  0  0  0
    1.2244   -1.1273    4.2098 H   0  0  0  0  0  0  0  0  0  0  0  0
    0.0200   -2.6846    2.7265 H   0  0  0  0  0  0  0  0  0  0  0  0
   -1.1918   -1.6801   -0.9810 H   0  0  0  0  0  0  0  0  0  0  0  0
   -3.1386   -3.2938   -3.4775 H   0  0  0  0  0  0  0  0  0  0  0  0
   -1.6538   -3.2172   -2.5309 H   0  0  0  0  0  0  0  0  0  0  0  0
   -3.1253   -2.4196   -1.9455 H   0  0  0  0  0  0  0  0  0  0  0  0
   -0.4398   -2.3071   -4.5773 H   0  0  0  0  0  0  0  0  0  0  0  0
   -1.1116   -0.9354   -5.4674 H   0  0  0  0  0  0  0  0  0  0  0  0
   -1.9654   -2.4682   -5.4633 H   0  0  0  0  0  0  0  0  0  0  0  0
   -4.0122   -0.3515   -3.1461 H   0  0  0  0  0  0  0  0  0  0  0  0
   -3.2259    0.2224   -4.6198 H   0  0  0  0  0  0  0  0  0  0  0  0
   -4.0541   -1.3236   -4.6282 H   0  0  0  0  0  0  0  0  0  0  0  0
   -1.1175    1.0749   -4.2714 H   0  0  0  0  0  0  0  0  0  0  0  0
    0.2509    2.5653   -2.8619 H   0  0  0  0  0  0  0  0  0  0  0  0
    1.1951    1.7033    0.9853 H   0  0  0  0  0  0  0  0  0  0  0  0
  1  2  1  0
  2  3  1  0
  2  4  1  0
  2  5  1  0
  5  6  2  0
  6  7  1  0
  7  8  2  0
  8  9  1  0
  9 10  1  0
 10 11  2  0
 11 12  1  0
 12 13  1  0
 13 14  1  0
 13 15  1  0
 13 16  1  0
 12 17  2  0
 17 18  1  0
 18 19  2  0
  9 20  2  0
 20  5  1  0
 19 10  1  0
  1 21  1  0
  1 22  1  0
  1 23  1  0
  3 24  1  0
  3 25  1  0
  3 26  1  0
  4 27  1  0
  4 28  1  0
  4 29  1  0
  6 30  1  0
  7 31  1  0
 11 32  1  0
 14 33  1  0
 14 34  1  0
 14 35  1  0
 15 36  1  0
 15 37  1  0
 15 38  1  0
 16 39  1  0
 16 40  1  0
 16 41  1  0
 17 42  1  0
 18 43  1  0
 20 44  1  0
M  END
$$$$

     RDKit          3D

 44 45  0  0  0  0  0  0  0  0999 V2000
   -4.6371   -2.2739    1.1602 C   0  0  0  0  0  0  0  0  0  0  0  0
   -3.4070   -2.7700    0.3892 C   0  0  0  0  0  0  0  0  0  0  0  0
   -2.5665   -3.6323    1.3250 C   0  0  0  0  0  0  0  0  0  0  0  0
   -3.8673   -3.6410   -0.7910 C   0  0  0  0  0  0  0  0  0  0  0  0
   -2.6219   -1.5785   -0.1368 C   0  0  0  0  0  0  0  0  0  0  0  0
   -3.2281   -0.6873   -1.0203 C   0  0  0  0  0  0  0  0  0  0  0  0
   -2.4995    0.4061   -1.4871 C   0  0  0  0  0  0  0  0  0  0  0  0
   -1.2506    0.6588   -1.1437 N   0  0  0  0  0  0  0  0  0  0  0  0
   -0.6604   -0.2075   -0.2998 C   0  0  0  0  0  0  0  0  0  0  0  0
    0.7542    0.0678    0.0711 C   0  0  0  0  0  0  0  0  0  0  0  0
    1.3307    1.2854   -0.2564 C   0  0  0  0  0  0  0  0  0  0  0  0
    2.6539    1.5344    0.0701 C   0  0  0  0  0  0  0  0  0  0  0  0
    3.3605    2.8383   -0.2698 C   0  0  0  0  0  0  0  0  0  0  0  0
    4.4533    2.5590   -1.3111 C   0  0  0  0  0  0  0  0  0  0  0  0
    2.3920    3.8713   -0.8400 C   0  0  0  0  0  0  0  0  0  0  0  0
    4.0069    3.4285    0.9905 C   0  0  0  0  0  0  0  0  0  0  0  0
    3.3471    0.5169    0.7222 C   0  0  0  0  0  0  0  0  0  0  0  0
    2.6833   -0.6716    1.0209 C   0  0  0  0  0  0  0  0  0  0  0  0
    1.4191   -0.9048    0.7205 N   0  0  0  0  0  0  0  0  0  0  0  0
   -1.3079   -1.3200    0.2133 C   0  0  0  0  0  0  0  0  0  0  0  0
   -4.3365   -1.6680    2.0126 H   0  0  0  0  0  0  0  0  0  0  0  0
   -5.2964   -1.6815    0.5308 H   0  0  0  0  0  0  0  0  0  0  0  0
   -5.2170   -3.1246    1.5262 H   0  0  0  0  0  0  0  0  0  0  0  0
   -1.6941   -4.0391    0.8169 H   0  0  0  0  0  0  0  0  0  0  0  0
   -3.1694   -4.4781    1.6827 H   0  0  0  0  0  0  0  0  0  0  0  0
   -2.2372   -3.0774    2.2020 H   0  0  0  0  0  0  0  0  0  0  0  0
   -3.0118   -3.9730   -1.3826 H   0  0  0  0  0  0  0  0  0  0  0  0
   -4.3890   -4.5246   -0.4179 H   0  0  0  0  0  0  0  0  0  0  0  0
   -4.5540   -3.1123   -1.4444 H   0  0  0  0  0  0  0  0  0  0  0  0
   -4.2472   -0.8289   -1.3510 H   0  0  0  0  0  0  0  0  0  0  0  0
   -2.9634    1.1091   -2.1771 H   0  0  0  0  0  0  0  0  0  0  0  0
    0.7260    2.0209   -0.7642 H   0  0  0  0  0  0  0  0  0  0  0  0
    4.0196    2.1563   -2.2314 H   0  0  0  0  0  0  0  0  0  0  0  0
    5.1907    1.8510   -0.9429 H   0  0  0  0  0  0  0  0  0  0  0  0
    4.9806    3.4855   -1.5567 H   0  0  0  0  0  0  0  0  0  0  0  0
    1.9560    3.5434   -1.7773 H   0  0  0  0  0  0  0  0  0  0  0  0
    2.9372    4.8053   -1.0456 H   0  0  0  0  0  0  0  0  0  0  0  0
    1.5938    4.1035   -0.1391 H   0  0  0  0  0  0  0  0  0  0  0  0
    4.7868    2.7860    1.3900 H   0  0  0  0  0  0  0  0  0  0  0  0
    4.4777    4.3856    0.7510 H   0  0  0  0  0  0  0  0  0  0  0  0
    3.2627    3.5955    1.7688 H   0  0  0  0  0  0  0  0  0  0  0  0
    4.3870    0.6282    1.0007 H   0  0  0  0  0  0  0  0  0  0  0  0
    3.2109   -1.4731    1.5390 H   0  0  0  0  0  0  0  0  0  0  0  0
   -0.7680   -1.9693    0.8827 H   0  0  0  0  0  0  0  0  0  0  0  0
  1  2  1  0
  2  3  1  0
  2  4  1  0
  2  5  1  0
  5  6  2  0
  6  7  1  0
  7  8  2  0
  8  9  1  0
  9 10  1  0
 10 11  2  0
 11 12  1  0
 12 13  1  0
 13 14  1  0
 13 15  1  0
 13 16  1  0
 12 17  2  0
 17 18  1  0
 18 19  2  0
  9 20  2  0
 20  5  1  0
 19 10  1  0
  1 21  1  0
  1 22  1  0
  1 23  1  0
  3 24  1  0
  3 25  1  0
  3 26  1  0
  4 27  1  0
  4 28  1  0
  4 29  1  0
  6 30  1  0
  7 31  1  0
 11 32  1  0
 14 33  1  0
 14 34  1  0
 14 35  1  0
 15 36  1  0
 15 37  1  0
 15 38  1  0
 16 39  1  0
 16 40  1  0
 16 41  1  0
 17 42  1  0
 18 43  1  0
 20 44  1  0
M  END
$$$$

     RDKit          3D

 44 45  0  0  0  0  0  0  0  0999 V2000
   -4.7066   -1.3031    1.9999 C   0  0  0  0  0  0  0  0  0  0  0  0
   -4.1979   -0.0332    1.3036 C   0  0  0  0  0  0  0  0  0  0  0  0
   -3.8507    1.0004    2.3711 C   0  0  0  0  0  0  0  0  0  0  0  0
   -5.3214    0.5349    0.4271 C   0  0  0  0  0  0  0  0  0  0  0  0
   -2.9893   -0.3772    0.4437 C   0  0  0  0  0  0  0  0  0  0  0  0
   -3.1194   -1.2815   -0.6079 C   0  0  0  0  0  0  0  0  0  0  0  0
   -1.9983   -1.5915   -1.3794 C   0  0  0  0  0  0  0  0  0  0  0  0
   -0.8030   -1.0738   -1.1827 N   0  0  0  0  0  0  0  0  0  0  0  0
   -0.6728   -0.2012   -0.1666 C   0  0  0  0  0  0  0  0  0  0  0  0
    0.6769    0.3794    0.0590 C   0  0  0  0  0  0  0  0  0  0  0  0
    1.7588   -0.0550   -0.6848 C   0  0  0  0  0  0  0  0  0  0  0  0
    3.0218    0.4787   -0.4553 C   0  0  0  0  0  0  0  0  0  0  0  0
    4.2172   -0.0229   -1.2509 C   0  0  0  0  0  0  0  0  0  0  0  0
    3.9808    0.2518   -2.7382 C   0  0  0  0  0  0  0  0  0  0  0  0
    4.3803   -1.5306   -1.0307 C   0  0  0  0  0  0  0  0  0  0  0  0
    5.5116    0.6726   -0.8240 C   0  0  0  0  0  0  0  0  0  0  0  0
    3.1231    1.4670    0.5146 C   0  0  0  0  0  0  0  0  0  0  0  0
    1.9751    1.8530    1.2070 C   0  0  0  0  0  0  0  0  0  0  0  0
    0.7815    1.3311    1.0051 N   0  0  0  0  0  0  0  0  0  0  0  0
   -1.7317    0.1657    0.6509 C   0  0  0  0  0  0  0  0  0  0  0  0
   -5.0247   -2.0588    1.2877 H   0  0  0  0  0  0  0  0  0  0  0  0
   -5.5742   -1.0618    2.6229 H   0  0  0  0  0  0  0  0  0  0  0  0
   -3.9324   -1.7289    2.6423 H   0  0  0  0  0  0  0  0  0  0  0  0
   -4.7449    1.2187    2.9740 H   0  0  0  0  0  0  0  0  0  0  0  0
   -3.0817    0.6363    3.0482 H   0  0  0  0  0  0  0  0  0  0  0  0
   -3.5186    1.9384    1.9305 H   0  0  0  0  0  0  0  0  0  0  0  0
   -5.6580   -0.1849   -0.3194 H   0  0  0  0  0  0  0  0  0  0  0  0
   -4.9931    1.4408   -0.0852 H   0  0  0  0  0  0  0  0  0  0  0  0
   -6.1863    0.7814    1.0493 H   0  0  0  0  0  0  0  0  0  0  0  0
   -4.0661   -1.7489   -0.8384 H   0  0  0  0  0  0  0  0  0  0  0  0
   -2.0895   -2.2986   -2.2047 H   0  0  0  0  0  0  0  0  0  0  0  0
    1.6142   -0.8077   -1.4434 H   0  0  0  0  0  0  0  0  0  0  0  0
    3.8586    1.3188   -2.9226 H   0  0  0  0  0  0  0  0  0  0  0  0
    3.0978   -0.2668   -3.1146 H   0  0  0  0  0  0  0  0  0  0  0  0
    4.8457   -0.0981   -3.3143 H   0  0  0  0  0  0  0  0  0  0  0  0
    3.5181   -2.0913   -1.3961 H   0  0  0  0  0  0  0  0  0  0  0  0
    5.2617   -1.8837   -1.5850 H   0  0  0  0  0  0  0  0  0  0  0  0
    4.5289   -1.7587    0.0189 H   0  0  0  0  0  0  0  0  0  0  0  0
    5.4618    1.7443   -0.9881 H   0  0  0  0  0  0  0  0  0  0  0  0
    6.3558    0.2921   -1.4079 H   0  0  0  0  0  0  0  0  0  0  0  0
    5.7383    0.4961    0.2244 H   0  0  0  0  0  0  0  0  0  0  0  0
    4.0602    1.9521    0.7514 H   0  0  0  0  0  0  0  0  0  0  0  0
    2.0435    2.6277    1.9678 H   0  0  0  0  0  0  0  0  0  0  0  0
   -1.5509    0.8769    1.4409 H   0  0  0  0  0  0  0  0  0  0  0  0
  1  2  1  0
  2  3  1  0
  2  4  1  0
  2  5  1  0
  5  6  2  0
  6  7  1  0
  7  8  2  0
  8  9  1  0
  9 10  1  0
 10 11  2  0
 11 12  1  0
 12 13  1  0
 13 14  1  0
 13 15  1  0
 13 16  1  0
 12 17  2  0
 17 18  1  0
 18 19  2  0
  9 20  2  0
 20  5  1  0
 19 10  1  0
  1 21  1  0
  1 22  1  0
  1 23  1  0
  3 24  1  0
  3 25  1  0
  3 26  1  0
  4 27  1  0
  4 28  1  0
  4 29  1  0
  6 30  1  0
  7 31  1  0
 11 32  1  0
 14 33  1  0
 14 34  1  0
 14 35  1  0
 15 36  1  0
 15 37  1  0
 15 38  1  0
 16 39  1  0
 16 40  1  0
 16 41  1  0
 17 42  1  0
 18 43  1  0
 20 44  1  0
M  END
$$$$

     RDKit          3D

 44 45  0  0  0  0  0  0  0  0999 V2000
   -4.0820   -2.8561   -2.0757 C   0  0  0  0  0  0  0  0  0  0  0  0
   -3.6650   -2.3432   -0.6917 C   0  0  0  0  0  0  0  0  0  0  0  0
   -3.9799   -3.4143    0.3611 C   0  0  0  0  0  0  0  0  0  0  0  0
   -4.4866   -1.0979   -0.3720 C   0  0  0  0  0  0  0  0  0  0  0  0
   -2.1722   -2.0520   -0.6840 C   0  0  0  0  0  0  0  0  0  0  0  0
   -1.2650   -3.0749   -0.9506 C   0  0  0  0  0  0  0  0  0  0  0  0
    0.1012   -2.8000   -0.9048 C   0  0  0  0  0  0  0  0  0  0  0  0
    0.6048   -1.6139   -0.6258 N   0  0  0  0  0  0  0  0  0  0  0  0
   -0.2701   -0.6212   -0.3771 C   0  0  0  0  0  0  0  0  0  0  0  0
    0.2978    0.7123   -0.0428 C   0  0  0  0  0  0  0  0  0  0  0  0
    1.6536    0.8440    0.2163 C   0  0  0  0  0  0  0  0  0  0  0  0
    2.1781    2.0834    0.5496 C   0  0  0  0  0  0  0  0  0  0  0  0
    3.6531    2.3097    0.8512 C   0  0  0  0  0  0  0  0  0  0  0  0
    4.4336    0.9992    0.8362 C   0  0  0  0  0  0  0  0  0  0  0  0
    4.2519    3.2474   -0.2055 C   0  0  0  0  0  0  0  0  0  0  0  0
    3.8113    2.9509    2.2364 C   0  0  0  0  0  0  0  0  0  0  0  0
    1.2893    3.1549    0.5895 C   0  0  0  0  0  0  0  0  0  0  0  0
   -0.0583    2.9290    0.3099 C   0  0  0  0  0  0  0  0  0  0  0  0
   -0.5580    1.7487    0.0027 N   0  0  0  0  0  0  0  0  0  0  0  0
   -1.6442   -0.8002   -0.4143 C   0  0  0  0  0  0  0  0  0  0  0  0
   -5.1567   -3.0477   -2.0915 H   0  0  0  0  0  0  0  0  0  0  0  0
   -3.5860   -3.7918   -2.3293 H   0  0  0  0  0  0  0  0  0  0  0  0
   -3.8477   -2.1243   -2.8477 H   0  0  0  0  0  0  0  0  0  0  0  0
   -5.0517   -3.6399    0.3509 H   0  0  0  0  0  0  0  0  0  0  0  0
   -3.7131   -3.0621    1.3588 H   0  0  0  0  0  0  0  0  0  0  0  0
   -3.4532   -4.3425    0.1698 H   0  0  0  0  0  0  0  0  0  0  0  0
   -4.2460   -0.6978    0.6082 H   0  0  0  0  0  0  0  0  0  0  0  0
   -5.5559   -1.3562   -0.3693 H   0  0  0  0  0  0  0  0  0  0  0  0
   -4.3419   -0.3220   -1.1194 H   0  0  0  0  0  0  0  0  0  0  0  0
   -1.5971   -4.0750   -1.1952 H   0  0  0  0  0  0  0  0  0  0  0  0
    0.8176   -3.5956   -1.1098 H   0  0  0  0  0  0  0  0  0  0  0  0
    2.2766   -0.0321    0.1548 H   0  0  0  0  0  0  0  0  0  0  0  0
    5.4892    1.2016    1.0769 H   0  0  0  0  0  0  0  0  0  0  0  0
    4.0556    0.2963    1.5739 H   0  0  0  0  0  0  0  0  0  0  0  0
    4.4075    0.5288   -0.1438 H   0  0  0  0  0  0  0  0  0  0  0  0
    3.7639    4.2188   -0.2104 H   0  0  0  0  0  0  0  0  0  0  0  0
    5.3105    3.4203    0.0140 H   0  0  0  0  0  0  0  0  0  0  0  0
    4.1724    2.8146   -1.2016 H   0  0  0  0  0  0  0  0  0  0  0  0
    3.4205    2.2937    3.0166 H   0  0  0  0  0  0  0  0  0  0  0  0
    4.8691    3.1369    2.4420 H   0  0  0  0  0  0  0  0  0  0  0  0
    3.2982    3.9042    2.3026 H   0  0  0  0  0  0  0  0  0  0  0  0
    1.6176    4.1567    0.8314 H   0  0  0  0  0  0  0  0  0  0  0  0
   -0.7614    3.7598    0.3378 H   0  0  0  0  0  0  0  0  0  0  0  0
   -2.2811    0.0495   -0.2285 H   0  0  0  0  0  0  0  0  0  0  0  0
  1  2  1  0
  2  3  1  0
  2  4  1  0
  2  5  1  0
  5  6  2  0
  6  7  1  0
  7  8  2  0
  8  9  1  0
  9 10  1  0
 10 11  2  0
 11 12  1  0
 12 13  1  0
 13 14  1  0
 13 15  1  0
 13 16  1  0
 12 17  2  0
 17 18  1  0
 18 19  2  0
  9 20  2  0
 20  5  1  0
 19 10  1  0
  1 21  1  0
  1 22  1  0
  1 23  1  0
  3 24  1  0
  3 25  1  0
  3 26  1  0
  4 27  1  0
  4 28  1  0
  4 29  1  0
  6 30  1  0
  7 31  1  0
 11 32  1  0
 14 33  1  0
 14 34  1  0
 14 35  1  0
 15 36  1  0
 15 37  1  0
 15 38  1  0
 16 39  1  0
 16 40  1  0
 16 41  1  0
 17 42  1  0
 18 43  1  0
 20 44  1  0
M  END
$$$$

     RDKit          3D

 44 45  0  0  0  0  0  0  0  0999 V2000
   -0.4865   -3.5069    4.0303 C   0  0  0  0  0  0  0  0  0  0  0  0
   -0.5661   -1.9812    3.8812 C   0  0  0  0  0  0  0  0  0  0  0  0
   -2.0373   -1.5745    3.8508 C   0  0  0  0  0  0  0  0  0  0  0  0
    0.0984   -1.3234    5.0979 C   0  0  0  0  0  0  0  0  0  0  0  0
    0.1604   -1.5512    2.6132 C   0  0  0  0  0  0  0  0  0  0  0  0
    1.5053   -1.8727    2.4401 C   0  0  0  0  0  0  0  0  0  0  0  0
    2.1540   -1.4746    1.2710 C   0  0  0  0  0  0  0  0  0  0  0  0
    1.5720   -0.7970    0.3026 N   0  0  0  0  0  0  0  0  0  0  0  0
    0.2719   -0.4846    0.4672 C   0  0  0  0  0  0  0  0  0  0  0  0
   -0.3845    0.2765   -0.6298 C   0  0  0  0  0  0  0  0  0  0  0  0
    0.3678    0.7821   -1.6743 C   0  0  0  0  0  0  0  0  0  0  0  0
   -0.2449    1.5075   -2.6886 C   0  0  0  0  0  0  0  0  0  0  0  0
    0.5893    2.0785   -3.8263 C   0  0  0  0  0  0  0  0  0  0  0  0
    1.2955    0.9376   -4.5622 C   0  0  0  0  0  0  0  0  0  0  0  0
    1.6389    3.0381   -3.2572 C   0  0  0  0  0  0  0  0  0  0  0  0
   -0.2793    2.8420   -4.8272 C   0  0  0  0  0  0  0  0  0  0  0  0
   -1.6203    1.6730   -2.6030 C   0  0  0  0  0  0  0  0  0  0  0  0
   -2.3031    1.1147   -1.5212 C   0  0  0  0  0  0  0  0  0  0  0  0
   -1.7175    0.4393   -0.5503 N   0  0  0  0  0  0  0  0  0  0  0  0
   -0.4528   -0.8398    1.5944 C   0  0  0  0  0  0  0  0  0  0  0  0
   -1.0244   -3.8226    4.9265 H   0  0  0  0  0  0  0  0  0  0  0  0
   -0.9312   -4.0002    3.1676 H   0  0  0  0  0  0  0  0  0  0  0  0
    0.5402   -3.8522    4.1373 H   0  0  0  0  0  0  0  0  0  0  0  0
   -2.1565   -0.4957    3.8029 H   0  0  0  0  0  0  0  0  0  0  0  0
   -2.5624   -2.0269    3.0120 H   0  0  0  0  0  0  0  0  0  0  0  0
   -2.5296   -1.9179    4.7741 H   0  0  0  0  0  0  0  0  0  0  0  0
    0.0410   -0.2340    5.0265 H   0  0  0  0  0  0  0  0  0  0  0  0
    1.1418   -1.6110    5.1934 H   0  0  0  0  0  0  0  0  0  0  0  0
   -0.4104   -1.6344    6.0176 H   0  0  0  0  0  0  0  0  0  0  0  0
    2.0549   -2.4248    3.1916 H   0  0  0  0  0  0  0  0  0  0  0  0
    3.2041   -1.7243    1.1228 H   0  0  0  0  0  0  0  0  0  0  0  0
    1.4315    0.6078   -1.6960 H   0  0  0  0  0  0  0  0  0  0  0  0
    0.5742    0.2355   -4.9772 H   0  0  0  0  0  0  0  0  0  0  0  0
    1.8828    1.3506   -5.3923 H   0  0  0  0  0  0  0  0  0  0  0  0
    1.9779    0.3920   -3.9092 H   0  0  0  0  0  0  0  0  0  0  0  0
    2.3377    2.5309   -2.5867 H   0  0  0  0  0  0  0  0  0  0  0  0
    1.1695    3.8546   -2.7203 H   0  0  0  0  0  0  0  0  0  0  0  0
    2.2257    3.4673   -4.0836 H   0  0  0  0  0  0  0  0  0  0  0  0
   -0.8024    3.6699   -4.3584 H   0  0  0  0  0  0  0  0  0  0  0  0
    0.3422    3.2592   -5.6267 H   0  0  0  0  0  0  0  0  0  0  0  0
   -1.0120    2.1923   -5.2943 H   0  0  0  0  0  0  0  0  0  0  0  0
   -2.1837    2.2221   -3.3446 H   0  0  0  0  0  0  0  0  0  0  0  0
   -3.3825    1.2331   -1.4487 H   0  0  0  0  0  0  0  0  0  0  0  0
   -1.4894   -0.5545    1.6571 H   0  0  0  0  0  0  0  0  0  0  0  0
  1  2  1  0
  2  3  1  0
  2  4  1  0
  2  5  1  0
  5  6  2  0
  6  7  1  0
  7  8  2  0
  8  9  1  0
  9 10  1  0
 10 11  2  0
 11 12  1  0
 12 13  1  0
 13 14  1  0
 13 15  1  0
 13 16  1  0
 12 17  2  0
 17 18  1  0
 18 19  2  0
  9 20  2  0
 20  5  1  0
 19 10  1  0
  1 21  1  0
  1 22  1  0
  1 23  1  0
  3 24  1  0
  3 25  1  0
  3 26  1  0
  4 27  1  0
  4 28  1  0
  4 29  1  0
  6 30  1  0
  7 31  1  0
 11 32  1  0
 14 33  1  0
 14 34  1  0
 14 35  1  0
 15 36  1  0
 15 37  1  0
 15 38  1  0
 16 39  1  0
 16 40  1  0
 16 41  1  0
 17 42  1  0
 18 43  1  0
 20 44  1  0
M  END
$$$$

     RDKit          3D

 44 45  0  0  0  0  0  0  0  0999 V2000
   -3.2234    3.5365   -0.1001 C   0  0  0  0  0  0  0  0  0  0  0  0
   -2.9427    2.9953    1.3045 C   0  0  0  0  0  0  0  0  0  0  0  0
   -1.9188    3.8973    2.0019 C   0  0  0  0  0  0  0  0  0  0  0  0
   -4.2436    3.0184    2.1045 C   0  0  0  0  0  0  0  0  0  0  0  0
   -2.3739    1.5875    1.1981 C   0  0  0  0  0  0  0  0  0  0  0  0
   -2.9712    0.4808    1.7856 C   0  0  0  0  0  0  0  0  0  0  0  0
   -2.3794   -0.7733    1.6284 C   0  0  0  0  0  0  0  0  0  0  0  0
   -1.2684   -0.9840    0.9445 N   0  0  0  0  0  0  0  0  0  0  0  0
   -0.6887    0.0883    0.3732 C   0  0  0  0  0  0  0  0  0  0  0  0
    0.5564   -0.1485   -0.4050 C   0  0  0  0  0  0  0  0  0  0  0  0
    1.1173   -1.4156   -0.4603 C   0  0  0  0  0  0  0  0  0  0  0  0
    2.2807   -1.6297   -1.1845 C   0  0  0  0  0  0  0  0  0  0  0  0
    2.9757   -2.9809   -1.2666 C   0  0  0  0  0  0  0  0  0  0  0  0
    4.4164   -2.8468   -0.7522 C   0  0  0  0  0  0  0  0  0  0  0  0
    2.2620   -4.0331   -0.4233 C   0  0  0  0  0  0  0  0  0  0  0  0
    3.0002   -3.4582   -2.7243 C   0  0  0  0  0  0  0  0  0  0  0  0
    2.8165   -0.5327   -1.8567 C   0  0  0  0  0  0  0  0  0  0  0  0
    2.1841    0.7048   -1.7465 C   0  0  0  0  0  0  0  0  0  0  0  0
    1.0928    0.9122   -1.0368 N   0  0  0  0  0  0  0  0  0  0  0  0
   -1.2044    1.3664    0.4834 C   0  0  0  0  0  0  0  0  0  0  0  0
   -3.9209    2.8906   -0.6312 H   0  0  0  0  0  0  0  0  0  0  0  0
   -2.3138    3.6282   -0.6879 H   0  0  0  0  0  0  0  0  0  0  0  0
   -3.6741    4.5339   -0.0242 H   0  0  0  0  0  0  0  0  0  0  0  0
   -0.9974    3.9934    1.4237 H   0  0  0  0  0  0  0  0  0  0  0  0
   -1.6698    3.5132    2.9877 H   0  0  0  0  0  0  0  0  0  0  0  0
   -2.3430    4.9049    2.1247 H   0  0  0  0  0  0  0  0  0  0  0  0
   -5.0088    2.4022    1.6459 H   0  0  0  0  0  0  0  0  0  0  0  0
   -4.6383    4.0383    2.1575 H   0  0  0  0  0  0  0  0  0  0  0  0
   -4.0955    2.6796    3.1266 H   0  0  0  0  0  0  0  0  0  0  0  0
   -3.8846    0.5577    2.3599 H   0  0  0  0  0  0  0  0  0  0  0  0
   -2.8378   -1.6481    2.0860 H   0  0  0  0  0  0  0  0  0  0  0  0
    0.6282   -2.2219    0.0634 H   0  0  0  0  0  0  0  0  0  0  0  0
    4.4247   -2.5009    0.2822 H   0  0  0  0  0  0  0  0  0  0  0  0
    4.9172   -3.8201   -0.7963 H   0  0  0  0  0  0  0  0  0  0  0  0
    5.0030   -2.1589   -1.3519 H   0  0  0  0  0  0  0  0  0  0  0  0
    1.2492   -4.2136   -0.7753 H   0  0  0  0  0  0  0  0  0  0  0  0
    2.2281   -3.7522    0.6266 H   0  0  0  0  0  0  0  0  0  0  0  0
    2.8074   -4.9859   -0.4922 H   0  0  0  0  0  0  0  0  0  0  0  0
    3.4822   -4.4386   -2.7871 H   0  0  0  0  0  0  0  0  0  0  0  0
    3.5620   -2.7809   -3.3640 H   0  0  0  0  0  0  0  0  0  0  0  0
    1.9878   -3.5458   -3.1192 H   0  0  0  0  0  0  0  0  0  0  0  0
    3.7095   -0.6204   -2.4651 H   0  0  0  0  0  0  0  0  0  0  0  0
    2.5952    1.5715   -2.2624 H   0  0  0  0  0  0  0  0  0  0  0  0
   -0.6980    2.1890    0.0049 H   0  0  0  0  0  0  0  0  0  0  0  0
  1  2  1  0
  2  3  1  0
  2  4  1  0
  2  5  1  0
  5  6  2  0
  6  7  1  0
  7  8  2  0
  8  9  1  0
  9 10  1  0
 10 11  2  0
 11 12  1  0
 12 13  1  0
 13 14  1  0
 13 15  1  0
 13 16  1  0
 12 17  2  0
 17 18  1  0
 18 19  2  0
  9 20  2  0
 20  5  1  0
 19 10  1  0
  1 21  1  0
  1 22  1  0
  1 23  1  0
  3 24  1  0
  3 25  1  0
  3 26  1  0
  4 27  1  0
  4 28  1  0
  4 29  1  0
  6 30  1  0
  7 31  1  0
 11 32  1  0
 14 33  1  0
 14 34  1  0
 14 35  1  0
 15 36  1  0
 15 37  1  0
 15 38  1  0
 16 39  1  0
 16 40  1  0
 16 41  1  0
 17 42  1  0
 18 43  1  0
 20 44  1  0
M  END
$$$$

     RDKit          3D

 44 45  0  0  0  0  0  0  0  0999 V2000
   -4.1333   -0.6477   -2.0470 C   0  0  0  0  0  0  0  0  0  0  0  0
   -3.6050    0.7550   -2.3574 C   0  0  0  0  0  0  0  0  0  0  0  0
   -2.9701    0.7631   -3.7512 C   0  0  0  0  0  0  0  0  0  0  0  0
   -4.7770    1.7353   -2.3555 C   0  0  0  0  0  0  0  0  0  0  0  0
   -2.5561    1.1287   -1.3197 C   0  0  0  0  0  0  0  0  0  0  0  0
   -2.7018    2.1989   -0.4494 C   0  0  0  0  0  0  0  0  0  0  0  0
   -1.7029    2.4454    0.4949 C   0  0  0  0  0  0  0  0  0  0  0  0
   -0.6105    1.7141    0.6210 N   0  0  0  0  0  0  0  0  0  0  0  0
   -0.4593    0.6869   -0.2333 C   0  0  0  0  0  0  0  0  0  0  0  0
    0.7781   -0.1237   -0.0984 C   0  0  0  0  0  0  0  0  0  0  0  0
    1.4860   -0.1180    1.0937 C   0  0  0  0  0  0  0  0  0  0  0  0
    2.6336   -0.8851    1.2203 C   0  0  0  0  0  0  0  0  0  0  0  0
    3.4518   -0.9627    2.5010 C   0  0  0  0  0  0  0  0  0  0  0  0
    4.8671   -0.4208    2.2496 C   0  0  0  0  0  0  0  0  0  0  0  0
    2.8160   -0.1498    3.6259 C   0  0  0  0  0  0  0  0  0  0  0  0
    3.5560   -2.4247    2.9558 C   0  0  0  0  0  0  0  0  0  0  0  0
    3.0270   -1.6164    0.1020 C   0  0  0  0  0  0  0  0  0  0  0  0
    2.2543   -1.5570   -1.0576 C   0  0  0  0  0  0  0  0  0  0  0  0
    1.1504   -0.8426   -1.1713 N   0  0  0  0  0  0  0  0  0  0  0  0
   -1.3960    0.3734   -1.2015 C   0  0  0  0  0  0  0  0  0  0  0  0
   -4.5877   -0.6854   -1.0606 H   0  0  0  0  0  0  0  0  0  0  0  0
   -3.3394   -1.3921   -2.0979 H   0  0  0  0  0  0  0  0  0  0  0  0
   -4.9028   -0.9231   -2.7813 H   0  0  0  0  0  0  0  0  0  0  0  0
   -3.7399    0.5444   -4.5039 H   0  0  0  0  0  0  0  0  0  0  0  0
   -2.5412    1.7344   -3.9770 H   0  0  0  0  0  0  0  0  0  0  0  0
   -2.1919    0.0062   -3.8473 H   0  0  0  0  0  0  0  0  0  0  0  0
   -5.5083    1.4491   -3.1162 H   0  0  0  0  0  0  0  0  0  0  0  0
   -4.4547    2.7487   -2.5813 H   0  0  0  0  0  0  0  0  0  0  0  0
   -5.2944    1.7416   -1.4041 H   0  0  0  0  0  0  0  0  0  0  0  0
   -3.5637    2.8504   -0.4750 H   0  0  0  0  0  0  0  0  0  0  0  0
   -1.8074    3.2808    1.1843 H   0  0  0  0  0  0  0  0  0  0  0  0
    1.1269    0.4936    1.9063 H   0  0  0  0  0  0  0  0  0  0  0  0
    4.8316    0.6271    1.9448 H   0  0  0  0  0  0  0  0  0  0  0  0
    5.3869   -0.9875    1.4836 H   0  0  0  0  0  0  0  0  0  0  0  0
    5.4568   -0.4941    3.1673 H   0  0  0  0  0  0  0  0  0  0  0  0
    1.8155   -0.5073    3.8605 H   0  0  0  0  0  0  0  0  0  0  0  0
    2.7650    0.9070    3.3806 H   0  0  0  0  0  0  0  0  0  0  0  0
    3.4267   -0.2465    4.5361 H   0  0  0  0  0  0  0  0  0  0  0  0
    2.5687   -2.8508    3.1212 H   0  0  0  0  0  0  0  0  0  0  0  0
    4.1220   -2.4818    3.8921 H   0  0  0  0  0  0  0  0  0  0  0  0
    4.0831   -3.0386    2.2288 H   0  0  0  0  0  0  0  0  0  0  0  0
    3.9136   -2.2361    0.1145 H   0  0  0  0  0  0  0  0  0  0  0  0
    2.5489   -2.1321   -1.9343 H   0  0  0  0  0  0  0  0  0  0  0  0
   -1.2222   -0.4605   -1.8628 H   0  0  0  0  0  0  0  0  0  0  0  0
  1  2  1  0
  2  3  1  0
  2  4  1  0
  2  5  1  0
  5  6  2  0
  6  7  1  0
  7  8  2  0
  8  9  1  0
  9 10  1  0
 10 11  2  0
 11 12  1  0
 12 13  1  0
 13 14  1  0
 13 15  1  0
 13 16  1  0
 12 17  2  0
 17 18  1  0
 18 19  2  0
  9 20  2  0
 20  5  1  0
 19 10  1  0
  1 21  1  0
  1 22  1  0
  1 23  1  0
  3 24  1  0
  3 25  1  0
  3 26  1  0
  4 27  1  0
  4 28  1  0
  4 29  1  0
  6 30  1  0
  7 31  1  0
 11 32  1  0
 14 33  1  0
 14 34  1  0
 14 35  1  0
 15 36  1  0
 15 37  1  0
 15 38  1  0
 16 39  1  0
 16 40  1  0
 16 41  1  0
 17 42  1  0
 18 43  1  0
 20 44  1  0
M  END
$$$$

     RDKit          3D

 44 45  0  0  0  0  0  0  0  0999 V2000
   -2.9927   -1.8243   -3.0385 C   0  0  0  0  0  0  0  0  0  0  0  0
   -3.7525   -1.5328   -1.7501 C   0  0  0  0  0  0  0  0  0  0  0  0
   -4.8696   -0.5260   -2.0589 C   0  0  0  0  0  0  0  0  0  0  0  0
   -4.3781   -2.8390   -1.2469 C   0  0  0  0  0  0  0  0  0  0  0  0
   -2.8340   -0.9563   -0.6828 C   0  0  0  0  0  0  0  0  0  0  0  0
   -3.3487   -0.6339    0.5708 C   0  0  0  0  0  0  0  0  0  0  0  0
   -2.5021   -0.0812    1.5304 C   0  0  0  0  0  0  0  0  0  0  0  0
   -1.2216    0.1635    1.3261 N   0  0  0  0  0  0  0  0  0  0  0  0
   -0.7195   -0.1514    0.1188 C   0  0  0  0  0  0  0  0  0  0  0  0
    0.7263    0.1187   -0.1056 C   0  0  0  0  0  0  0  0  0  0  0  0
    1.4917    0.6913    0.8989 C   0  0  0  0  0  0  0  0  0  0  0  0
    2.8407    0.9321    0.6908 C   0  0  0  0  0  0  0  0  0  0  0  0
    3.7494    1.5470    1.7445 C   0  0  0  0  0  0  0  0  0  0  0  0
    4.8750    0.5613    2.0859 C   0  0  0  0  0  0  0  0  0  0  0  0
    2.9840    1.8726    3.0232 C   0  0  0  0  0  0  0  0  0  0  0  0
    4.3629    2.8467    1.2023 C   0  0  0  0  0  0  0  0  0  0  0  0
    3.3613    0.5798   -0.5524 C   0  0  0  0  0  0  0  0  0  0  0  0
    2.5153    0.0124   -1.5049 C   0  0  0  0  0  0  0  0  0  0  0  0
    1.2318   -0.2198   -1.3067 N   0  0  0  0  0  0  0  0  0  0  0  0
   -1.4860   -0.7127   -0.8915 C   0  0  0  0  0  0  0  0  0  0  0  0
   -2.5426   -0.9257   -3.4526 H   0  0  0  0  0  0  0  0  0  0  0  0
   -2.2176   -2.5712   -2.8881 H   0  0  0  0  0  0  0  0  0  0  0  0
   -3.6918   -2.2193   -3.7922 H   0  0  0  0  0  0  0  0  0  0  0  0
   -5.4822   -0.3159   -1.1868 H   0  0  0  0  0  0  0  0  0  0  0  0
   -4.4538    0.4143   -2.4238 H   0  0  0  0  0  0  0  0  0  0  0  0
   -5.5334   -0.9309   -2.8314 H   0  0  0  0  0  0  0  0  0  0  0  0
   -4.9810   -2.6796   -0.3556 H   0  0  0  0  0  0  0  0  0  0  0  0
   -3.6146   -3.5796   -1.0173 H   0  0  0  0  0  0  0  0  0  0  0  0
   -5.0407   -3.2524   -2.0139 H   0  0  0  0  0  0  0  0  0  0  0  0
   -4.3908   -0.8035    0.8124 H   0  0  0  0  0  0  0  0  0  0  0  0
   -2.8909    0.1708    2.5161 H   0  0  0  0  0  0  0  0  0  0  0  0
    1.0178    0.9404    1.8355 H   0  0  0  0  0  0  0  0  0  0  0  0
    5.4839    0.3263    1.2152 H   0  0  0  0  0  0  0  0  0  0  0  0
    4.4690   -0.3686    2.4824 H   0  0  0  0  0  0  0  0  0  0  0  0
    5.5402    1.0005    2.8356 H   0  0  0  0  0  0  0  0  0  0  0  0
    3.6743    2.3081    3.7613 H   0  0  0  0  0  0  0  0  0  0  0  0
    2.1946    2.5978    2.8454 H   0  0  0  0  0  0  0  0  0  0  0  0
    2.5515    0.9807    3.4736 H   0  0  0  0  0  0  0  0  0  0  0  0
    4.9954    3.3046    1.9688 H   0  0  0  0  0  0  0  0  0  0  0  0
    3.5824    3.5614    0.9294 H   0  0  0  0  0  0  0  0  0  0  0  0
    4.9893    2.6724    0.3328 H   0  0  0  0  0  0  0  0  0  0  0  0
    4.4046    0.7387   -0.7911 H   0  0  0  0  0  0  0  0  0  0  0  0
    2.9108   -0.2709   -2.4787 H   0  0  0  0  0  0  0  0  0  0  0  0
   -1.0081   -0.9469   -1.8304 H   0  0  0  0  0  0  0  0  0  0  0  0
  1  2  1  0
  2  3  1  0
  2  4  1  0
  2  5  1  0
  5  6  2  0
  6  7  1  0
  7  8  2  0
  8  9  1  0
  9 10  1  0
 10 11  2  0
 11 12  1  0
 12 13  1  0
 13 14  1  0
 13 15  1  0
 13 16  1  0
 12 17  2  0
 17 18  1  0
 18 19  2  0
  9 20  2  0
 20  5  1  0
 19 10  1  0
  1 21  1  0
  1 22  1  0
  1 23  1  0
  3 24  1  0
  3 25  1  0
  3 26  1  0
  4 27  1  0
  4 28  1  0
  4 29  1  0
  6 30  1  0
  7 31  1  0
 11 32  1  0
 14 33  1  0
 14 34  1  0
 14 35  1  0
 15 36  1  0
 15 37  1  0
 15 38  1  0
 16 39  1  0
 16 40  1  0
 16 41  1  0
 17 42  1  0
 18 43  1  0
 20 44  1  0
M  END
$$$$

     RDKit          3D

 44 45  0  0  0  0  0  0  0  0999 V2000
    5.5287   -0.8089   -0.5237 C   0  0  0  0  0  0  0  0  0  0  0  0
    4.1968   -1.2993    0.0452 C   0  0  0  0  0  0  0  0  0  0  0  0
    3.9747   -2.7466   -0.4057 C   0  0  0  0  0  0  0  0  0  0  0  0
    4.2739   -1.2529    1.5759 C   0  0  0  0  0  0  0  0  0  0  0  0
    3.0354   -0.4367   -0.4255 C   0  0  0  0  0  0  0  0  0  0  0  0
    3.1887    0.6348   -1.2938 C   0  0  0  0  0  0  0  0  0  0  0  0
    2.0667    1.3822   -1.6528 C   0  0  0  0  0  0  0  0  0  0  0  0
    0.8427    1.1361   -1.2161 N   0  0  0  0  0  0  0  0  0  0  0  0
    0.6918    0.0970   -0.3756 C   0  0  0  0  0  0  0  0  0  0  0  0
   -0.6804   -0.1717    0.1313 C   0  0  0  0  0  0  0  0  0  0  0  0
   -1.7194    0.6957   -0.1692 C   0  0  0  0  0  0  0  0  0  0  0  0
   -2.9942    0.4418    0.3112 C   0  0  0  0  0  0  0  0  0  0  0  0
   -4.1847    1.3465    0.0304 C   0  0  0  0  0  0  0  0  0  0  0  0
   -4.7908    1.8299    1.3546 C   0  0  0  0  0  0  0  0  0  0  0  0
   -3.7841    2.5669   -0.7922 C   0  0  0  0  0  0  0  0  0  0  0  0
   -5.2446    0.5604   -0.7528 C   0  0  0  0  0  0  0  0  0  0  0  0
   -3.1636   -0.7091    1.0792 C   0  0  0  0  0  0  0  0  0  0  0  0
   -2.0604   -1.5216    1.3331 C   0  0  0  0  0  0  0  0  0  0  0  0
   -0.8459   -1.2726    0.8881 N   0  0  0  0  0  0  0  0  0  0  0  0
    1.7478   -0.7049    0.0210 C   0  0  0  0  0  0  0  0  0  0  0  0
    5.7551    0.2051   -0.2026 H   0  0  0  0  0  0  0  0  0  0  0  0
    5.5352   -0.8341   -1.6077 H   0  0  0  0  0  0  0  0  0  0  0  0
    6.3453   -1.4504   -0.1805 H   0  0  0  0  0  0  0  0  0  0  0  0
    3.9272   -2.8147   -1.4916 H   0  0  0  0  0  0  0  0  0  0  0  0
    4.8158   -3.3647   -0.0649 H   0  0  0  0  0  0  0  0  0  0  0  0
    3.0582   -3.1661    0.0101 H   0  0  0  0  0  0  0  0  0  0  0  0
    5.1456   -1.8336    1.9113 H   0  0  0  0  0  0  0  0  0  0  0  0
    3.3905   -1.6883    2.0453 H   0  0  0  0  0  0  0  0  0  0  0  0
    4.3898   -0.2323    1.9304 H   0  0  0  0  0  0  0  0  0  0  0  0
    4.1509    0.9123   -1.7024 H   0  0  0  0  0  0  0  0  0  0  0  0
    2.1763    2.2258   -2.3324 H   0  0  0  0  0  0  0  0  0  0  0  0
   -1.5110    1.5630   -0.7745 H   0  0  0  0  0  0  0  0  0  0  0  0
   -5.1569    1.0057    1.9596 H   0  0  0  0  0  0  0  0  0  0  0  0
   -5.6453    2.4870    1.1556 H   0  0  0  0  0  0  0  0  0  0  0  0
   -4.0571    2.3927    1.9382 H   0  0  0  0  0  0  0  0  0  0  0  0
   -3.0480    3.1795   -0.2753 H   0  0  0  0  0  0  0  0  0  0  0  0
   -4.6707    3.1917   -0.9733 H   0  0  0  0  0  0  0  0  0  0  0  0
   -3.3846    2.2829   -1.7633 H   0  0  0  0  0  0  0  0  0  0  0  0
   -4.8398    0.2094   -1.6999 H   0  0  0  0  0  0  0  0  0  0  0  0
   -6.1057    1.2022   -0.9559 H   0  0  0  0  0  0  0  0  0  0  0  0
   -5.6098   -0.2984   -0.1926 H   0  0  0  0  0  0  0  0  0  0  0  0
   -4.1294   -0.9857    1.4837 H   0  0  0  0  0  0  0  0  0  0  0  0
   -2.1784   -2.4205    1.9367 H   0  0  0  0  0  0  0  0  0  0  0  0
    1.5672   -1.5356    0.6836 H   0  0  0  0  0  0  0  0  0  0  0  0
  1  2  1  0
  2  3  1  0
  2  4  1  0
  2  5  1  0
  5  6  2  0
  6  7  1  0
  7  8  2  0
  8  9  1  0
  9 10  1  0
 10 11  2  0
 11 12  1  0
 12 13  1  0
 13 14  1  0
 13 15  1  0
 13 16  1  0
 12 17  2  0
 17 18  1  0
 18 19  2  0
  9 20  2  0
 20  5  1  0
 19 10  1  0
  1 21  1  0
  1 22  1  0
  1 23  1  0
  3 24  1  0
  3 25  1  0
  3 26  1  0
  4 27  1  0
  4 28  1  0
  4 29  1  0
  6 30  1  0
  7 31  1  0
 11 32  1  0
 14 33  1  0
 14 34  1  0
 14 35  1  0
 15 36  1  0
 15 37  1  0
 15 38  1  0
 16 39  1  0
 16 40  1  0
 16 41  1  0
 17 42  1  0
 18 43  1  0
 20 44  1  0
M  END
$$$$
