
     RDKit          3D

 26 27  0  0  0  0  0  0  0  0999 V2000
    3.8293   -3.2250   -2.3839 F   0  0  0  0  0  0  0  0  0  0  0  0
    2.6777   -2.8928   -2.9884 C   0  0  0  0  0  0  0  0  0  0  0  0
    2.9874   -2.3700   -4.1815 F   0  0  0  0  0  0  0  0  0  0  0  0
    2.0437   -4.0553   -3.2170 F   0  0  0  0  0  0  0  0  0  0  0  0
    1.8559   -1.9692   -2.1421 C   0  0  0  0  0  0  0  0  0  0  0  0
    1.3076   -0.7944   -2.6332 C   0  0  0  0  0  0  0  0  0  0  0  0
    0.5615   -0.0136   -1.7859 C   0  0  0  0  0  0  0  0  0  0  0  0
    0.3884   -0.4102   -0.4708 C   0  0  0  0  0  0  0  0  0  0  0  0
   -0.3900    0.4107    0.4691 C   0  0  0  0  0  0  0  0  0  0  0  0
   -0.4818    0.0677    1.8073 C   0  0  0  0  0  0  0  0  0  0  0  0
   -1.2154    0.8564    2.6571 C   0  0  0  0  0  0  0  0  0  0  0  0
   -1.8524    1.9742    2.1414 C   0  0  0  0  0  0  0  0  0  0  0  0
   -2.7078    2.8714    2.9819 C   0  0  0  0  0  0  0  0  0  0  0  0
   -2.3960    4.1651    2.8146 F   0  0  0  0  0  0  0  0  0  0  0  0
   -2.6171    2.5995    4.2902 F   0  0  0  0  0  0  0  0  0  0  0  0
   -4.0058    2.7661    2.6471 F   0  0  0  0  0  0  0  0  0  0  0  0
   -1.7057    2.2524    0.7877 C   0  0  0  0  0  0  0  0  0  0  0  0
   -0.9987    1.4977   -0.0216 N   0  0  0  0  0  0  0  0  0  0  0  0
    0.9195   -1.5460   -0.0013 N   0  0  0  0  0  0  0  0  0  0  0  0
    1.6265   -2.3006   -0.8120 C   0  0  0  0  0  0  0  0  0  0  0  0
    1.4630   -0.4940   -3.6616 H   0  0  0  0  0  0  0  0  0  0  0  0
    0.1170    0.9073   -2.1317 H   0  0  0  0  0  0  0  0  0  0  0  0
    0.0262   -0.8137    2.1706 H   0  0  0  0  0  0  0  0  0  0  0  0
   -1.2902    0.6084    3.7080 H   0  0  0  0  0  0  0  0  0  0  0  0
   -2.1842    3.1251    0.3422 H   0  0  0  0  0  0  0  0  0  0  0  0
    2.0413   -3.2171   -0.3865 H   0  0  0  0  0  0  0  0  0  0  0  0
  1  2  1  0
  2  3  1  0
  2  4  1  0
  2  5  1  0
  5  6  2  0
  6  7  1  0
  7  8  2  0
  8  9  1  0
  9 10  2  0
 10 11  1  0
 11 12  2  0
 12 13  1  0
 13 14  1  0
 13 15  1  0
 13 16  1  0
 12 17  1  0
 17 18  2  0
  8 19  1  0
 19 20  2  0
 20  5  1  0
 18  9  1  0
  6 21  1  0
  7 22  1  0
 10 23  1  0
 11 24  1  0
 17 25  1  0
 20 26  1  0
M  END
$$$$

     RDKit          3D

 26 27  0  0  0  0  0  0  0  0999 V2000
   -2.1868    2.6657    4.3512 F   0  0  0  0  0  0  0  0  0  0  0  0
   -1.2965    3.2296    3.5182 C   0  0  0  0  0  0  0  0  0  0  0  0
   -0.2419    3.5559    4.2796 F   0  0  0  0  0  0  0  0  0  0  0  0
   -1.8359    4.3742    3.0741 F   0  0  0  0  0  0  0  0  0  0  0  0
   -0.9175    2.3013    2.4043 C   0  0  0  0  0  0  0  0  0  0  0  0
   -1.0231    2.6567    1.0697 C   0  0  0  0  0  0  0  0  0  0  0  0
   -0.6536    1.7426    0.1158 C   0  0  0  0  0  0  0  0  0  0  0  0
   -0.1931    0.4961    0.5063 C   0  0  0  0  0  0  0  0  0  0  0  0
    0.2054   -0.5079   -0.4920 C   0  0  0  0  0  0  0  0  0  0  0  0
    0.5847   -1.7848   -0.1132 C   0  0  0  0  0  0  0  0  0  0  0  0
    0.9531   -2.6910   -1.0762 C   0  0  0  0  0  0  0  0  0  0  0  0
    0.9279   -2.2946   -2.4039 C   0  0  0  0  0  0  0  0  0  0  0  0
    1.3079   -3.2132   -3.5247 C   0  0  0  0  0  0  0  0  0  0  0  0
    0.2957   -3.3795   -4.3922 F   0  0  0  0  0  0  0  0  0  0  0  0
    1.6710   -4.4296   -3.0984 F   0  0  0  0  0  0  0  0  0  0  0  0
    2.3236   -2.7205   -4.2469 F   0  0  0  0  0  0  0  0  0  0  0  0
    0.5362   -0.9947   -2.7002 C   0  0  0  0  0  0  0  0  0  0  0  0
    0.1825   -0.1306   -1.7759 N   0  0  0  0  0  0  0  0  0  0  0  0
   -0.0968    0.1569    1.7955 N   0  0  0  0  0  0  0  0  0  0  0  0
   -0.4407    1.0317    2.7133 C   0  0  0  0  0  0  0  0  0  0  0  0
   -1.3914    3.6302    0.7755 H   0  0  0  0  0  0  0  0  0  0  0  0
   -0.7173    1.9850   -0.9338 H   0  0  0  0  0  0  0  0  0  0  0  0
    0.5816   -2.0597    0.9322 H   0  0  0  0  0  0  0  0  0  0  0  0
    1.2601   -3.6915   -0.7991 H   0  0  0  0  0  0  0  0  0  0  0  0
    0.5027   -0.6381   -3.7300 H   0  0  0  0  0  0  0  0  0  0  0  0
   -0.3379    0.7097    3.7507 H   0  0  0  0  0  0  0  0  0  0  0  0
  1  2  1  0
  2  3  1  0
  2  4  1  0
  2  5  1  0
  5  6  2  0
  6  7  1  0
  7  8  2  0
  8  9  1  0
  9 10  2  0
 10 11  1  0
 11 12  2  0
 12 13  1  0
 13 14  1  0
 13 15  1  0
 13 16  1  0
 12 17  1  0
 17 18  2  0
  8 19  1  0
 19 20  2  0
 20  5  1  0
 18  9  1  0
  6 21  1  0
  7 22  1  0
 10 23  1  0
 11 24  1  0
 17 25  1  0
 20 26  1  0
M  END
$$$$

     RDKit          3D

 26 27  0  0  0  0  0  0  0  0999 V2000
    0.9865    5.3941   -1.3452 F   0  0  0  0  0  0  0  0  0  0  0  0
   -0.1946    4.7635   -1.3187 C   0  0  0  0  0  0  0  0  0  0  0  0
   -0.9902    5.4442   -0.4788 F   0  0  0  0  0  0  0  0  0  0  0  0
   -0.7523    4.8984   -2.5319 F   0  0  0  0  0  0  0  0  0  0  0  0
   -0.0654    3.3261   -0.9212 C   0  0  0  0  0  0  0  0  0  0  0  0
    1.1440    2.7687   -0.5390 C   0  0  0  0  0  0  0  0  0  0  0  0
    1.1709    1.4465   -0.1774 C   0  0  0  0  0  0  0  0  0  0  0  0
    0.0011    0.7070   -0.2067 C   0  0  0  0  0  0  0  0  0  0  0  0
   -0.0033   -0.7132    0.1789 C   0  0  0  0  0  0  0  0  0  0  0  0
   -1.1802   -1.4419    0.2024 C   0  0  0  0  0  0  0  0  0  0  0  0
   -1.1516   -2.7608    0.5783 C   0  0  0  0  0  0  0  0  0  0  0  0
    0.0675   -3.3277    0.9166 C   0  0  0  0  0  0  0  0  0  0  0  0
    0.1960   -4.7610    1.3334 C   0  0  0  0  0  0  0  0  0  0  0  0
    0.6945   -4.8829    2.5730 F   0  0  0  0  0  0  0  0  0  0  0  0
    1.0432   -5.4337    0.5387 F   0  0  0  0  0  0  0  0  0  0  0  0
   -0.9761   -5.4103    1.3086 F   0  0  0  0  0  0  0  0  0  0  0  0
    1.2046   -2.5305    0.8601 C   0  0  0  0  0  0  0  0  0  0  0  0
    1.1723   -1.2657    0.5035 N   0  0  0  0  0  0  0  0  0  0  0  0
   -1.1654    1.2483   -0.5801 N   0  0  0  0  0  0  0  0  0  0  0  0
   -1.1946    2.5164   -0.9256 C   0  0  0  0  0  0  0  0  0  0  0  0
    2.0518    3.3582   -0.5215 H   0  0  0  0  0  0  0  0  0  0  0  0
    2.0938    0.9793    0.1303 H   0  0  0  0  0  0  0  0  0  0  0  0
   -2.1089   -0.9648   -0.0738 H   0  0  0  0  0  0  0  0  0  0  0  0
   -2.0652   -3.3413    0.6069 H   0  0  0  0  0  0  0  0  0  0  0  0
    2.1854   -2.9351    1.1159 H   0  0  0  0  0  0  0  0  0  0  0  0
   -2.1640    2.9183   -1.2266 H   0  0  0  0  0  0  0  0  0  0  0  0
  1  2  1  0
  2  3  1  0
  2  4  1  0
  2  5  1  0
  5  6  2  0
  6  7  1  0
  7  8  2  0
  8  9  1  0
  9 10  2  0
 10 11  1  0
 11 12  2  0
 12 13  1  0
 13 14  1  0
 13 15  1  0
 13 16  1  0
 12 17  1  0
 17 18  2  0
  8 19  1  0
 19 20  2  0
 20  5  1  0
 18  9  1  0
  6 21  1  0
  7 22  1  0
 10 23  1  0
 11 24  1  0
 17 25  1  0
 20 26  1  0
M  END
$$$$

     RDKit          3D

 26 27  0  0  0  0  0  0  0  0999 V2000
    4.9909   -2.3407    1.2496 F   0  0  0  0  0  0  0  0  0  0  0  0
    4.6355   -1.7161    0.1185 C   0  0  0  0  0  0  0  0  0  0  0  0
    5.5157   -0.7244   -0.0863 F   0  0  0  0  0  0  0  0  0  0  0  0
    4.8272   -2.5785   -0.8937 F   0  0  0  0  0  0  0  0  0  0  0  0
    3.2268   -1.2096    0.1590 C   0  0  0  0  0  0  0  0  0  0  0  0
    2.3936   -1.4165    1.2467 C   0  0  0  0  0  0  0  0  0  0  0  0
    1.1143   -0.9231    1.1962 C   0  0  0  0  0  0  0  0  0  0  0  0
    0.6942   -0.2344    0.0706 C   0  0  0  0  0  0  0  0  0  0  0  0
   -0.6747    0.2945   -0.0307 C   0  0  0  0  0  0  0  0  0  0  0  0
   -1.0564    1.0841   -1.1023 C   0  0  0  0  0  0  0  0  0  0  0  0
   -2.3462    1.5466   -1.1752 C   0  0  0  0  0  0  0  0  0  0  0  0
   -3.2313    1.1999   -0.1672 C   0  0  0  0  0  0  0  0  0  0  0  0
   -4.6672    1.6292   -0.1705 C   0  0  0  0  0  0  0  0  0  0  0  0
   -5.0368    2.1496    1.0072 F   0  0  0  0  0  0  0  0  0  0  0  0
   -4.9359    2.5403   -1.1144 F   0  0  0  0  0  0  0  0  0  0  0  0
   -5.4922    0.5869   -0.3769 F   0  0  0  0  0  0  0  0  0  0  0  0
   -2.7682    0.4062    0.8750 C   0  0  0  0  0  0  0  0  0  0  0  0
   -1.5296   -0.0303    0.9450 N   0  0  0  0  0  0  0  0  0  0  0  0
    1.5070   -0.0265   -0.9717 N   0  0  0  0  0  0  0  0  0  0  0  0
    2.7297   -0.5048   -0.9300 C   0  0  0  0  0  0  0  0  0  0  0  0
    2.7393   -1.9606    2.1176 H   0  0  0  0  0  0  0  0  0  0  0  0
    0.4394   -1.0577    2.0276 H   0  0  0  0  0  0  0  0  0  0  0  0
   -0.3376    1.3308   -1.8696 H   0  0  0  0  0  0  0  0  0  0  0  0
   -2.6589    2.1652   -2.0075 H   0  0  0  0  0  0  0  0  0  0  0  0
   -3.4303    0.1077    1.6886 H   0  0  0  0  0  0  0  0  0  0  0  0
    3.3520   -0.3177   -1.8057 H   0  0  0  0  0  0  0  0  0  0  0  0
  1  2  1  0
  2  3  1  0
  2  4  1  0
  2  5  1  0
  5  6  2  0
  6  7  1  0
  7  8  2  0
  8  9  1  0
  9 10  2  0
 10 11  1  0
 11 12  2  0
 12 13  1  0
 13 14  1  0
 13 15  1  0
 13 16  1  0
 12 17  1  0
 17 18  2  0
  8 19  1  0
 19 20  2  0
 20  5  1  0
 18  9  1  0
  6 21  1  0
  7 22  1  0
 10 23  1  0
 11 24  1  0
 17 25  1  0
 20 26  1  0
M  END
$$$$

     RDKit          3D

 26 27  0  0  0  0  0  0  0  0999 V2000
   -2.1550   -3.8242    3.5578 F   0  0  0  0  0  0  0  0  0  0  0  0
   -2.0870   -3.8917    2.2235 C   0  0  0  0  0  0  0  0  0  0  0  0
   -1.4581   -5.0319    1.9062 F   0  0  0  0  0  0  0  0  0  0  0  0
   -3.3458   -4.0351    1.7664 F   0  0  0  0  0  0  0  0  0  0  0  0
   -1.4195   -2.6943    1.6221 C   0  0  0  0  0  0  0  0  0  0  0  0
   -1.0820   -1.5821    2.3766 C   0  0  0  0  0  0  0  0  0  0  0  0
   -0.5036   -0.5124    1.7423 C   0  0  0  0  0  0  0  0  0  0  0  0
   -0.2670   -0.5743    0.3788 C   0  0  0  0  0  0  0  0  0  0  0  0
    0.3382    0.5598   -0.3368 C   0  0  0  0  0  0  0  0  0  0  0  0
    0.5841    0.4911   -1.6997 C   0  0  0  0  0  0  0  0  0  0  0  0
    1.1377    1.5666   -2.3380 C   0  0  0  0  0  0  0  0  0  0  0  0
    1.4335    2.7041   -1.5949 C   0  0  0  0  0  0  0  0  0  0  0  0
    2.0018    3.9147   -2.2674 C   0  0  0  0  0  0  0  0  0  0  0  0
    2.4451    4.8329   -1.3944 F   0  0  0  0  0  0  0  0  0  0  0  0
    1.0888    4.5200   -3.0449 F   0  0  0  0  0  0  0  0  0  0  0  0
    3.0149    3.6042   -3.0825 F   0  0  0  0  0  0  0  0  0  0  0  0
    1.1676    2.6886   -0.2321 C   0  0  0  0  0  0  0  0  0  0  0  0
    0.6355    1.6488    0.3768 N   0  0  0  0  0  0  0  0  0  0  0  0
   -0.5829   -1.6559   -0.3436 N   0  0  0  0  0  0  0  0  0  0  0  0
   -1.1389   -2.6819    0.2607 C   0  0  0  0  0  0  0  0  0  0  0  0
   -1.2664   -1.5546    3.4437 H   0  0  0  0  0  0  0  0  0  0  0  0
   -0.2300    0.3747    2.2948 H   0  0  0  0  0  0  0  0  0  0  0  0
    0.3383   -0.4082   -2.2421 H   0  0  0  0  0  0  0  0  0  0  0  0
    1.3385    1.5372   -3.4065 H   0  0  0  0  0  0  0  0  0  0  0  0
    1.3956    3.5432    0.4010 H   0  0  0  0  0  0  0  0  0  0  0  0
   -1.3833   -3.5391   -0.3677 H   0  0  0  0  0  0  0  0  0  0  0  0
  1  2  1  0
  2  3  1  0
  2  4  1  0
  2  5  1  0
  5  6  2  0
  6  7  1  0
  7  8  2  0
  8  9  1  0
  9 10  2  0
 10 11  1  0
 11 12  2  0
 12 13  1  0
 13 14  1  0
 13 15  1  0
 13 16  1  0
 12 17  1  0
 17 18  2  0
  8 19  1  0
 19 20  2  0
 20  5  1  0
 18  9  1  0
  6 21  1  0
  7 22  1  0
 10 23  1  0
 11 24  1  0
 17 25  1  0
 20 26  1  0
M  END
$$$$

     RDKit          3D

 26 27  0  0  0  0  0  0  0  0999 V2000
   -4.3435    3.0059   -1.6467 F   0  0  0  0  0  0  0  0  0  0  0  0
   -4.3633    2.2679   -0.5269 C   0  0  0  0  0  0  0  0  0  0  0  0
   -5.3455    1.3727   -0.7087 F   0  0  0  0  0  0  0  0  0  0  0  0
   -4.7335    3.0706    0.4770 F   0  0  0  0  0  0  0  0  0  0  0  0
   -3.0441    1.6019   -0.2844 C   0  0  0  0  0  0  0  0  0  0  0  0
   -2.3143    1.7821    0.8795 C   0  0  0  0  0  0  0  0  0  0  0  0
   -1.1091    1.1365    1.0012 C   0  0  0  0  0  0  0  0  0  0  0  0
   -0.6558    0.3333   -0.0325 C   0  0  0  0  0  0  0  0  0  0  0  0
    0.6369   -0.3645    0.0592 C   0  0  0  0  0  0  0  0  0  0  0  0
    1.0847   -1.1717   -0.9741 C   0  0  0  0  0  0  0  0  0  0  0  0
    2.2957   -1.8073   -0.8582 C   0  0  0  0  0  0  0  0  0  0  0  0
    3.0395   -1.6096    0.2948 C   0  0  0  0  0  0  0  0  0  0  0  0
    4.3874   -2.2290    0.4966 C   0  0  0  0  0  0  0  0  0  0  0  0
    5.3717   -1.3153    0.3958 F   0  0  0  0  0  0  0  0  0  0  0  0
    4.6520   -3.1928   -0.3942 F   0  0  0  0  0  0  0  0  0  0  0  0
    4.5142   -2.7625    1.7180 F   0  0  0  0  0  0  0  0  0  0  0  0
    2.5181   -0.7859    1.2856 C   0  0  0  0  0  0  0  0  0  0  0  0
    1.3569   -0.1823    1.1724 N   0  0  0  0  0  0  0  0  0  0  0  0
   -1.3679    0.1607   -1.1521 N   0  0  0  0  0  0  0  0  0  0  0  0
   -2.5236    0.7716   -1.2702 C   0  0  0  0  0  0  0  0  0  0  0  0
   -2.6792    2.4177    1.6759 H   0  0  0  0  0  0  0  0  0  0  0  0
   -0.5115    1.2481    1.8930 H   0  0  0  0  0  0  0  0  0  0  0  0
    0.4755   -1.2971   -1.8581 H   0  0  0  0  0  0  0  0  0  0  0  0
    2.6593   -2.4486   -1.6520 H   0  0  0  0  0  0  0  0  0  0  0  0
    3.0700   -0.6027    2.2080 H   0  0  0  0  0  0  0  0  0  0  0  0
   -3.0706    0.6000   -2.1988 H   0  0  0  0  0  0  0  0  0  0  0  0
  1  2  1  0
  2  3  1  0
  2  4  1  0
  2  5  1  0
  5  6  2  0
  6  7  1  0
  7  8  2  0
  8  9  1  0
  9 10  2  0
 10 11  1  0
 11 12  2  0
 12 13  1  0
 13 14  1  0
 13 15  1  0
 13 16  1  0
 12 17  1  0
 17 18  2  0
  8 19  1  0
 19 20  2  0
 20  5  1  0
 18  9  1  0
  6 21  1  0
  7 22  1  0
 10 23  1  0
 11 24  1  0
 17 25  1  0
 20 26  1  0
M  END
$$$$

     RDKit          3D

 26 27  0  0  0  0  0  0  0  0999 V2000
   -4.5232   -2.4912    1.9962 F   0  0  0  0  0  0  0  0  0  0  0  0
   -4.4354   -2.0650    0.7254 C   0  0  0  0  0  0  0  0  0  0  0  0
   -4.5965   -3.1591   -0.0351 F   0  0  0  0  0  0  0  0  0  0  0  0
   -5.4863   -1.2639    0.5063 F   0  0  0  0  0  0  0  0  0  0  0  0
   -3.1262   -1.3850    0.4647 C   0  0  0  0  0  0  0  0  0  0  0  0
   -3.0365   -0.0282    0.1923 C   0  0  0  0  0  0  0  0  0  0  0  0
   -1.7944    0.5218    0.0007 C   0  0  0  0  0  0  0  0  0  0  0  0
   -0.6733   -0.2858    0.0812 C   0  0  0  0  0  0  0  0  0  0  0  0
    0.6743    0.2750   -0.1060 C   0  0  0  0  0  0  0  0  0  0  0  0
    1.7922   -0.5416   -0.0892 C   0  0  0  0  0  0  0  0  0  0  0  0
    3.0340    0.0121   -0.2697 C   0  0  0  0  0  0  0  0  0  0  0  0
    3.1276    1.3814   -0.4602 C   0  0  0  0  0  0  0  0  0  0  0  0
    4.4341    2.0786   -0.6808 C   0  0  0  0  0  0  0  0  0  0  0  0
    5.4786    1.2379   -0.6812 F   0  0  0  0  0  0  0  0  0  0  0  0
    4.4495    2.7374   -1.8502 F   0  0  0  0  0  0  0  0  0  0  0  0
    4.6653    3.0082    0.2579 F   0  0  0  0  0  0  0  0  0  0  0  0
    1.9568    2.1330   -0.4544 C   0  0  0  0  0  0  0  0  0  0  0  0
    0.7697    1.5996   -0.2874 N   0  0  0  0  0  0  0  0  0  0  0  0
   -0.7647   -1.5978    0.3293 N   0  0  0  0  0  0  0  0  0  0  0  0
   -1.9534   -2.1289    0.5164 C   0  0  0  0  0  0  0  0  0  0  0  0
   -3.9229    0.5895    0.1276 H   0  0  0  0  0  0  0  0  0  0  0  0
   -1.6799    1.5752   -0.2090 H   0  0  0  0  0  0  0  0  0  0  0  0
    1.6792   -1.6042    0.0633 H   0  0  0  0  0  0  0  0  0  0  0  0
    3.9184   -0.6130   -0.2565 H   0  0  0  0  0  0  0  0  0  0  0  0
    1.9899    3.2161   -0.5970 H   0  0  0  0  0  0  0  0  0  0  0  0
   -1.9772   -3.2021    0.7154 H   0  0  0  0  0  0  0  0  0  0  0  0
  1  2  1  0
  2  3  1  0
  2  4  1  0
  2  5  1  0
  5  6  2  0
  6  7  1  0
  7  8  2  0
  8  9  1  0
  9 10  2  0
 10 11  1  0
 11 12  2  0
 12 13  1  0
 13 14  1  0
 13 15  1  0
 13 16  1  0
 12 17  1  0
 17 18  2  0
  8 19  1  0
 19 20  2  0
 20  5  1  0
 18  9  1  0
  6 21  1  0
  7 22  1  0
 10 23  1  0
 11 24  1  0
 17 25  1  0
 20 26  1  0
M  END
$$$$

     RDKit          3D

 26 27  0  0  0  0  0  0  0  0999 V2000
    1.0208   -3.0522   -4.6464 F   0  0  0  0  0  0  0  0  0  0  0  0
    0.6945   -1.7552   -4.5716 C   0  0  0  0  0  0  0  0  0  0  0  0
   -0.4095   -1.5776   -5.3174 F   0  0  0  0  0  0  0  0  0  0  0  0
    1.6609   -1.0635   -5.1938 F   0  0  0  0  0  0  0  0  0  0  0  0
    0.4960   -1.2919   -3.1621 C   0  0  0  0  0  0  0  0  0  0  0  0
    0.5479   -2.1579   -2.0809 C   0  0  0  0  0  0  0  0  0  0  0  0
    0.3559   -1.6483   -0.8214 C   0  0  0  0  0  0  0  0  0  0  0  0
    0.1251   -0.2924   -0.6633 C   0  0  0  0  0  0  0  0  0  0  0  0
   -0.0816    0.2918    0.6720 C   0  0  0  0  0  0  0  0  0  0  0  0
   -0.2701    1.6549    0.8271 C   0  0  0  0  0  0  0  0  0  0  0  0
   -0.4832    2.1706    2.0811 C   0  0  0  0  0  0  0  0  0  0  0  0
   -0.5062    1.2999    3.1578 C   0  0  0  0  0  0  0  0  0  0  0  0
   -0.7517    1.7486    4.5645 C   0  0  0  0  0  0  0  0  0  0  0  0
   -1.8182    1.1336    5.1023 F   0  0  0  0  0  0  0  0  0  0  0  0
   -0.9578    3.0688    4.6638 F   0  0  0  0  0  0  0  0  0  0  0  0
    0.2758    1.4418    5.3686 F   0  0  0  0  0  0  0  0  0  0  0  0
   -0.2923   -0.0528    2.9196 C   0  0  0  0  0  0  0  0  0  0  0  0
   -0.0847   -0.5426    1.7190 N   0  0  0  0  0  0  0  0  0  0  0  0
    0.0710    0.5384   -1.7119 N   0  0  0  0  0  0  0  0  0  0  0  0
    0.2491    0.0532   -2.9197 C   0  0  0  0  0  0  0  0  0  0  0  0
    0.7348   -3.2151   -2.2208 H   0  0  0  0  0  0  0  0  0  0  0  0
    0.3908   -2.2902    0.0474 H   0  0  0  0  0  0  0  0  0  0  0  0
   -0.2426    2.2992   -0.0379 H   0  0  0  0  0  0  0  0  0  0  0  0
   -0.6289    3.2345    2.2172 H   0  0  0  0  0  0  0  0  0  0  0  0
   -0.2912   -0.7658    3.7475 H   0  0  0  0  0  0  0  0  0  0  0  0
    0.1953    0.7702   -3.7407 H   0  0  0  0  0  0  0  0  0  0  0  0
  1  2  1  0
  2  3  1  0
  2  4  1  0
  2  5  1  0
  5  6  2  0
  6  7  1  0
  7  8  2  0
  8  9  1  0
  9 10  2  0
 10 11  1  0
 11 12  2  0
 12 13  1  0
 13 14  1  0
 13 15  1  0
 13 16  1  0
 12 17  1  0
 17 18  2  0
  8 19  1  0
 19 20  2  0
 20  5  1  0
 18  9  1  0
  6 21  1  0
  7 22  1  0
 10 23  1  0
 11 24  1  0
 17 25  1  0
 20 26  1  0
M  END
$$$$

     RDKit          3D

 26 27  0  0  0  0  0  0  0  0999 V2000
    3.5687    0.5630    4.2206 F   0  0  0  0  0  0  0  0  0  0  0  0
    3.3935   -0.5915    3.5517 C   0  0  0  0  0  0  0  0  0  0  0  0
    2.9789   -1.4787    4.4660 F   0  0  0  0  0  0  0  0  0  0  0  0
    4.6008   -0.9850    3.1228 F   0  0  0  0  0  0  0  0  0  0  0  0
    2.4089   -0.4413    2.4330 C   0  0  0  0  0  0  0  0  0  0  0  0
    2.7853   -0.5140    1.1006 C   0  0  0  0  0  0  0  0  0  0  0  0
    1.8237   -0.3460    0.1385 C   0  0  0  0  0  0  0  0  0  0  0  0
    0.5116   -0.1155    0.5172 C   0  0  0  0  0  0  0  0  0  0  0  0
   -0.5391    0.0717   -0.4950 C   0  0  0  0  0  0  0  0  0  0  0  0
   -1.8511    0.3190   -0.1296 C   0  0  0  0  0  0  0  0  0  0  0  0
   -2.7990    0.5033   -1.1044 C   0  0  0  0  0  0  0  0  0  0  0  0
   -2.4083    0.4325   -2.4329 C   0  0  0  0  0  0  0  0  0  0  0  0
   -3.3680    0.6343   -3.5647 C   0  0  0  0  0  0  0  0  0  0  0  0
   -2.9942    1.6516   -4.3579 F   0  0  0  0  0  0  0  0  0  0  0  0
   -4.6162    0.8891   -3.1458 F   0  0  0  0  0  0  0  0  0  0  0  0
   -3.4309   -0.4380   -4.3673 F   0  0  0  0  0  0  0  0  0  0  0  0
   -1.0717    0.1752   -2.7160 C   0  0  0  0  0  0  0  0  0  0  0  0
   -0.1688   -0.0028   -1.7793 N   0  0  0  0  0  0  0  0  0  0  0  0
    0.1525   -0.0470    1.8035 N   0  0  0  0  0  0  0  0  0  0  0  0
    1.0709   -0.2097    2.7298 C   0  0  0  0  0  0  0  0  0  0  0  0
    3.8147   -0.7007    0.8186 H   0  0  0  0  0  0  0  0  0  0  0  0
    2.0752   -0.3928   -0.9096 H   0  0  0  0  0  0  0  0  0  0  0  0
   -2.1189    0.3636    0.9156 H   0  0  0  0  0  0  0  0  0  0  0  0
   -3.8292    0.7009   -0.8342 H   0  0  0  0  0  0  0  0  0  0  0  0
   -0.7173    0.1096   -3.7453 H   0  0  0  0  0  0  0  0  0  0  0  0
    0.7280   -0.1504    3.7642 H   0  0  0  0  0  0  0  0  0  0  0  0
  1  2  1  0
  2  3  1  0
  2  4  1  0
  2  5  1  0
  5  6  2  0
  6  7  1  0
  7  8  2  0
  8  9  1  0
  9 10  2  0
 10 11  1  0
 11 12  2  0
 12 13  1  0
 13 14  1  0
 13 15  1  0
 13 16  1  0
 12 17  1  0
 17 18  2  0
  8 19  1  0
 19 20  2  0
 20  5  1  0
 18  9  1  0
  6 21  1  0
  7 22  1  0
 10 23  1  0
 11 24  1  0
 17 25  1  0
 20 26  1  0
M  END
$$$$

     RDKit          3D

 26 27  0  0  0  0  0  0  0  0999 V2000
   -5.6001    0.6940   -0.4306 F   0  0  0  0  0  0  0  0  0  0  0  0
   -4.9298   -0.4132   -0.0793 C   0  0  0  0  0  0  0  0  0  0  0  0
   -5.2952   -1.3878   -0.9287 F   0  0  0  0  0  0  0  0  0  0  0  0
   -5.3853   -0.7953    1.1238 F   0  0  0  0  0  0  0  0  0  0  0  0
   -3.4450   -0.2144   -0.0691 C   0  0  0  0  0  0  0  0  0  0  0  0
   -2.8540    1.0136   -0.3165 C   0  0  0  0  0  0  0  0  0  0  0  0
   -1.4851    1.1007   -0.2912 C   0  0  0  0  0  0  0  0  0  0  0  0
   -0.7352   -0.0306   -0.0178 C   0  0  0  0  0  0  0  0  0  0  0  0
    0.7345    0.0281    0.0151 C   0  0  0  0  0  0  0  0  0  0  0  0
    1.4895   -1.1196    0.1882 C   0  0  0  0  0  0  0  0  0  0  0  0
    2.8584   -1.0306    0.2112 C   0  0  0  0  0  0  0  0  0  0  0  0
    3.4451    0.2163    0.0674 C   0  0  0  0  0  0  0  0  0  0  0  0
    4.9289    0.4188    0.1096 C   0  0  0  0  0  0  0  0  0  0  0  0
    5.6114   -0.7321    0.1716 F   0  0  0  0  0  0  0  0  0  0  0  0
    5.3759    1.0937   -0.9612 F   0  0  0  0  0  0  0  0  0  0  0  0
    5.2920    1.1526    1.1749 F   0  0  0  0  0  0  0  0  0  0  0  0
    2.6172    1.3193   -0.1008 C   0  0  0  0  0  0  0  0  0  0  0  0
    1.3060    1.2280   -0.1322 N   0  0  0  0  0  0  0  0  0  0  0  0
   -1.3107   -1.2144    0.2256 N   0  0  0  0  0  0  0  0  0  0  0  0
   -2.6217   -1.3001    0.2059 C   0  0  0  0  0  0  0  0  0  0  0  0
   -3.4529    1.8905   -0.5260 H   0  0  0  0  0  0  0  0  0  0  0  0
   -0.9878    2.0375   -0.4861 H   0  0  0  0  0  0  0  0  0  0  0  0
    0.9943   -2.0719    0.3080 H   0  0  0  0  0  0  0  0  0  0  0  0
    3.4618   -1.9204    0.3367 H   0  0  0  0  0  0  0  0  0  0  0  0
    3.0347    2.3188   -0.2238 H   0  0  0  0  0  0  0  0  0  0  0  0
   -3.0470   -2.2815    0.4250 H   0  0  0  0  0  0  0  0  0  0  0  0
  1  2  1  0
  2  3  1  0
  2  4  1  0
  2  5  1  0
  5  6  2  0
  6  7  1  0
  7  8  2  0
  8  9  1  0
  9 10  2  0
 10 11  1  0
 11 12  2  0
 12 13  1  0
 13 14  1  0
 13 15  1  0
 13 16  1  0
 12 17  1  0
 17 18  2  0
  8 19  1  0
 19 20  2  0
 20  5  1  0
 18  9  1  0
  6 21  1  0
  7 22  1  0
 10 23  1  0
 11 24  1  0
 17 25  1  0
 20 26  1  0
M  END
$$$$

     RDKit          3D

 26 27  0  0  0  0  0  0  0  0999 V2000
   -0.8650    5.5040    0.9828 F   0  0  0  0  0  0  0  0  0  0  0  0
   -0.6345    4.5338    1.8781 C   0  0  0  0  0  0  0  0  0  0  0  0
   -1.6697    4.5194    2.7316 F   0  0  0  0  0  0  0  0  0  0  0  0
    0.4232    4.9113    2.6096 F   0  0  0  0  0  0  0  0  0  0  0  0
   -0.4230    3.1950    1.2399 C   0  0  0  0  0  0  0  0  0  0  0  0
   -0.4192    3.0137   -0.1337 C   0  0  0  0  0  0  0  0  0  0  0  0
   -0.2396    1.7466   -0.6291 C   0  0  0  0  0  0  0  0  0  0  0  0
   -0.0678    0.6888    0.2482 C   0  0  0  0  0  0  0  0  0  0  0  0
    0.1097   -0.6855   -0.2469 C   0  0  0  0  0  0  0  0  0  0  0  0
    0.3512   -1.7322    0.6261 C   0  0  0  0  0  0  0  0  0  0  0  0
    0.5098   -3.0011    0.1285 C   0  0  0  0  0  0  0  0  0  0  0  0
    0.4165   -3.1951   -1.2412 C   0  0  0  0  0  0  0  0  0  0  0  0
    0.5646   -4.5423   -1.8770 C   0  0  0  0  0  0  0  0  0  0  0  0
   -0.5586   -4.9213   -2.5108 F   0  0  0  0  0  0  0  0  0  0  0  0
    1.5240   -4.5501   -2.8131 F   0  0  0  0  0  0  0  0  0  0  0  0
    0.8634   -5.5001   -0.9897 F   0  0  0  0  0  0  0  0  0  0  0  0
    0.1752   -2.0915   -2.0488 C   0  0  0  0  0  0  0  0  0  0  0  0
    0.0223   -0.8796   -1.5678 N   0  0  0  0  0  0  0  0  0  0  0  0
   -0.0601    0.8726    1.5729 N   0  0  0  0  0  0  0  0  0  0  0  0
   -0.2302    2.0839    2.0526 C   0  0  0  0  0  0  0  0  0  0  0  0
   -0.5554    3.8493   -0.8090 H   0  0  0  0  0  0  0  0  0  0  0  0
   -0.2329    1.5677   -1.6938 H   0  0  0  0  0  0  0  0  0  0  0  0
    0.4131   -1.5428    1.6876 H   0  0  0  0  0  0  0  0  0  0  0  0
    0.7025   -3.8303    0.7961 H   0  0  0  0  0  0  0  0  0  0  0  0
    0.1003   -2.1942   -3.1319 H   0  0  0  0  0  0  0  0  0  0  0  0
   -0.2196    2.1801    3.1387 H   0  0  0  0  0  0  0  0  0  0  0  0
  1  2  1  0
  2  3  1  0
  2  4  1  0
  2  5  1  0
  5  6  2  0
  6  7  1  0
  7  8  2  0
  8  9  1  0
  9 10  2  0
 10 11  1  0
 11 12  2  0
 12 13  1  0
 13 14  1  0
 13 15  1  0
 13 16  1  0
 12 17  1  0
 17 18  2  0
  8 19  1  0
 19 20  2  0
 20  5  1  0
 18  9  1  0
  6 21  1  0
  7 22  1  0
 10 23  1  0
 11 24  1  0
 17 25  1  0
 20 26  1  0
M  END
$$$$

     RDKit          3D

 26 27  0  0  0  0  0  0  0  0999 V2000
    0.4116   -1.2004    5.5107 F   0  0  0  0  0  0  0  0  0  0  0  0
    1.3972   -0.8639    4.6660 C   0  0  0  0  0  0  0  0  0  0  0  0
    2.3105   -1.8464    4.7013 F   0  0  0  0  0  0  0  0  0  0  0  0
    2.0119    0.2131    5.1810 F   0  0  0  0  0  0  0  0  0  0  0  0
    0.9040   -0.6080    3.2756 C   0  0  0  0  0  0  0  0  0  0  0  0
   -0.4358   -0.6926    2.9319 C   0  0  0  0  0  0  0  0  0  0  0  0
   -0.7958   -0.4459    1.6320 C   0  0  0  0  0  0  0  0  0  0  0  0
    0.1773   -0.1111    0.7051 C   0  0  0  0  0  0  0  0  0  0  0  0
   -0.1756    0.1552   -0.6975 C   0  0  0  0  0  0  0  0  0  0  0  0
    0.7726    0.6024   -1.6013 C   0  0  0  0  0  0  0  0  0  0  0  0
    0.4109    0.8267   -2.9053 C   0  0  0  0  0  0  0  0  0  0  0  0
   -0.9038    0.5952   -3.2779 C   0  0  0  0  0  0  0  0  0  0  0  0
   -1.3876    0.7826   -4.6828 C   0  0  0  0  0  0  0  0  0  0  0  0
   -2.3699    1.6923   -4.7615 F   0  0  0  0  0  0  0  0  0  0  0  0
   -1.9105   -0.3502   -5.1792 F   0  0  0  0  0  0  0  0  0  0  0  0
   -0.4149    1.1744   -5.5167 F   0  0  0  0  0  0  0  0  0  0  0  0
   -1.7969    0.1565   -2.3081 C   0  0  0  0  0  0  0  0  0  0  0  0
   -1.4462   -0.0572   -1.0600 N   0  0  0  0  0  0  0  0  0  0  0  0
    1.4692   -0.0213    1.0444 N   0  0  0  0  0  0  0  0  0  0  0  0
    1.8189   -0.2681    2.2868 C   0  0  0  0  0  0  0  0  0  0  0  0
   -1.1869   -0.9494    3.6683 H   0  0  0  0  0  0  0  0  0  0  0  0
   -1.8300   -0.5017    1.3257 H   0  0  0  0  0  0  0  0  0  0  0  0
    1.7873    0.7716   -1.2733 H   0  0  0  0  0  0  0  0  0  0  0  0
    1.1408    1.1794   -3.6232 H   0  0  0  0  0  0  0  0  0  0  0  0
   -2.8433   -0.0306   -2.5563 H   0  0  0  0  0  0  0  0  0  0  0  0
    2.8851   -0.2024    2.5140 H   0  0  0  0  0  0  0  0  0  0  0  0
  1  2  1  0
  2  3  1  0
  2  4  1  0
  2  5  1  0
  5  6  2  0
  6  7  1  0
  7  8  2  0
  8  9  1  0
  9 10  2  0
 10 11  1  0
 11 12  2  0
 12 13  1  0
 13 14  1  0
 13 15  1  0
 13 16  1  0
 12 17  1  0
 17 18  2  0
  8 19  1  0
 19 20  2  0
 20  5  1  0
 18  9  1  0
  6 21  1  0
  7 22  1  0
 10 23  1  0
 11 24  1  0
 17 25  1  0
 20 26  1  0
M  END
$$$$
