
     RDKit          3D

 28 29  0  0  0  0  0  0  0  0999 V2000
    0.0469   -1.1613    4.5071 C   0  0  0  0  0  0  0  0  0  0  0  0
   -0.2800    0.2051    4.2492 O   0  0  0  0  0  0  0  0  0  0  0  0
   -0.2976    0.6281    2.9783 C   0  0  0  0  0  0  0  0  0  0  0  0
   -0.6127    1.9766    2.7711 C   0  0  0  0  0  0  0  0  0  0  0  0
   -0.6468    2.4482    1.4750 C   0  0  0  0  0  0  0  0  0  0  0  0
   -0.3992    1.7015    0.4039 N   0  0  0  0  0  0  0  0  0  0  0  0
   -0.0979    0.4100    0.6007 C   0  0  0  0  0  0  0  0  0  0  0  0
    0.1626   -0.4079   -0.6057 C   0  0  0  0  0  0  0  0  0  0  0  0
    0.0579    0.1658   -1.8705 C   0  0  0  0  0  0  0  0  0  0  0  0
    0.2954   -0.6326   -2.9879 C   0  0  0  0  0  0  0  0  0  0  0  0
    0.2246   -0.2107   -4.2591 O   0  0  0  0  0  0  0  0  0  0  0  0
   -0.1273    1.1545   -4.4914 C   0  0  0  0  0  0  0  0  0  0  0  0
    0.6390   -1.9737   -2.7842 C   0  0  0  0  0  0  0  0  0  0  0  0
    0.7196   -2.4385   -1.4875 C   0  0  0  0  0  0  0  0  0  0  0  0
    0.4910   -1.6929   -0.4109 N   0  0  0  0  0  0  0  0  0  0  0  0
   -0.0301   -0.1690    1.8668 C   0  0  0  0  0  0  0  0  0  0  0  0
    1.0573   -1.3835    4.1707 H   0  0  0  0  0  0  0  0  0  0  0  0
   -0.6636   -1.8343    4.0287 H   0  0  0  0  0  0  0  0  0  0  0  0
   -0.0134   -1.2917    5.5852 H   0  0  0  0  0  0  0  0  0  0  0  0
   -0.8231    2.6219    3.6128 H   0  0  0  0  0  0  0  0  0  0  0  0
   -0.8889    3.4903    1.2806 H   0  0  0  0  0  0  0  0  0  0  0  0
   -0.2084    1.2091   -1.9548 H   0  0  0  0  0  0  0  0  0  0  0  0
   -0.1402    1.2933   -5.5693 H   0  0  0  0  0  0  0  0  0  0  0  0
   -1.1142    1.3809   -4.0904 H   0  0  0  0  0  0  0  0  0  0  0  0
    0.6097    1.8231   -4.0538 H   0  0  0  0  0  0  0  0  0  0  0  0
    0.8342   -2.6204   -3.6286 H   0  0  0  0  0  0  0  0  0  0  0  0
    0.9816   -3.4766   -1.2963 H   0  0  0  0  0  0  0  0  0  0  0  0
    0.2238   -1.2152    1.9604 H   0  0  0  0  0  0  0  0  0  0  0  0
  1  2  1  0
  2  3  1  0
  3  4  2  0
  4  5  1  0
  5  6  2  0
  6  7  1  0
  7  8  1  0
  8  9  2  0
  9 10  1  0
 10 11  1  0
 11 12  1  0
 10 13  2  0
 13 14  1  0
 14 15  2  0
  7 16  2  0
 16  3  1  0
 15  8  1  0
  1 17  1  0
  1 18  1  0
  1 19  1  0
  4 20  1  0
  5 21  1  0
  9 22  1  0
 12 23  1  0
 12 24  1  0
 12 25  1  0
 13 26  1  0
 14 27  1  0
 16 28  1  0
M  END
$$$$

     RDKit          3D

 28 29  0  0  0  0  0  0  0  0999 V2000
    3.0260   -1.4522   -3.3163 C   0  0  0  0  0  0  0  0  0  0  0  0
    2.2530   -2.5549   -2.8526 O   0  0  0  0  0  0  0  0  0  0  0  0
    1.3371   -2.3368   -1.9017 C   0  0  0  0  0  0  0  0  0  0  0  0
    0.5865   -3.4365   -1.4875 C   0  0  0  0  0  0  0  0  0  0  0  0
   -0.3624   -3.2499   -0.5045 C   0  0  0  0  0  0  0  0  0  0  0  0
   -0.6144   -2.0795    0.0768 N   0  0  0  0  0  0  0  0  0  0  0  0
    0.1067   -1.0246   -0.3190 C   0  0  0  0  0  0  0  0  0  0  0  0
   -0.1880    0.2661    0.3450 C   0  0  0  0  0  0  0  0  0  0  0  0
   -1.2518    0.3809    1.2182 C   0  0  0  0  0  0  0  0  0  0  0  0
   -1.5129    1.6112    1.8114 C   0  0  0  0  0  0  0  0  0  0  0  0
   -2.5683    1.6796    2.6462 O   0  0  0  0  0  0  0  0  0  0  0  0
   -2.8539    2.9328    3.2752 C   0  0  0  0  0  0  0  0  0  0  0  0
   -0.6772    2.6861    1.5171 C   0  0  0  0  0  0  0  0  0  0  0  0
    0.3696    2.4581    0.6364 C   0  0  0  0  0  0  0  0  0  0  0  0
    0.6213    1.3044    0.0568 N   0  0  0  0  0  0  0  0  0  0  0  0
    1.0880   -1.1025   -1.2998 C   0  0  0  0  0  0  0  0  0  0  0  0
    2.3845   -0.6893   -3.7526 H   0  0  0  0  0  0  0  0  0  0  0  0
    3.6914   -1.8384   -4.0806 H   0  0  0  0  0  0  0  0  0  0  0  0
    3.6143   -1.0262   -2.5117 H   0  0  0  0  0  0  0  0  0  0  0  0
    0.7602   -4.4094   -1.9293 H   0  0  0  0  0  0  0  0  0  0  0  0
   -0.9622   -4.0897   -0.1583 H   0  0  0  0  0  0  0  0  0  0  0  0
   -1.8793   -0.4678    1.4486 H   0  0  0  0  0  0  0  0  0  0  0  0
   -3.7256    2.7587    3.9094 H   0  0  0  0  0  0  0  0  0  0  0  0
   -3.0919    3.6915    2.5370 H   0  0  0  0  0  0  0  0  0  0  0  0
   -2.0205    3.2558    3.8868 H   0  0  0  0  0  0  0  0  0  0  0  0
   -0.8202    3.6775    1.9445 H   0  0  0  0  0  0  0  0  0  0  0  0
    1.0517    3.2664    0.3849 H   0  0  0  0  0  0  0  0  0  0  0  0
    1.6382   -0.2113   -1.5802 H   0  0  0  0  0  0  0  0  0  0  0  0
  1  2  1  0
  2  3  1  0
  3  4  2  0
  4  5  1  0
  5  6  2  0
  6  7  1  0
  7  8  1  0
  8  9  2  0
  9 10  1  0
 10 11  1  0
 11 12  1  0
 10 13  2  0
 13 14  1  0
 14 15  2  0
  7 16  2  0
 16  3  1  0
 15  8  1  0
  1 17  1  0
  1 18  1  0
  1 19  1  0
  4 20  1  0
  5 21  1  0
  9 22  1  0
 12 23  1  0
 12 24  1  0
 12 25  1  0
 13 26  1  0
 14 27  1  0
 16 28  1  0
M  END
$$$$

     RDKit          3D

 28 29  0  0  0  0  0  0  0  0999 V2000
   -3.1194   -3.7818    1.8446 C   0  0  0  0  0  0  0  0  0  0  0  0
   -1.9439   -3.3688    1.1345 O   0  0  0  0  0  0  0  0  0  0  0  0
   -1.7190   -2.0452    1.0040 C   0  0  0  0  0  0  0  0  0  0  0  0
   -2.5458   -1.0569    1.5327 C   0  0  0  0  0  0  0  0  0  0  0  0
   -2.1717    0.2637    1.3325 C   0  0  0  0  0  0  0  0  0  0  0  0
   -1.0939    0.6458    0.6793 N   0  0  0  0  0  0  0  0  0  0  0  0
   -0.3026   -0.3153    0.1602 C   0  0  0  0  0  0  0  0  0  0  0  0
    0.9010    0.1254   -0.5828 C   0  0  0  0  0  0  0  0  0  0  0  0
    1.2091    1.4763   -0.6799 C   0  0  0  0  0  0  0  0  0  0  0  0
    2.3464    1.8556   -1.3947 C   0  0  0  0  0  0  0  0  0  0  0  0
    2.7565    3.1201   -1.5580 O   0  0  0  0  0  0  0  0  0  0  0  0
    1.9625    4.1639   -0.9956 C   0  0  0  0  0  0  0  0  0  0  0  0
    3.1249    0.8540   -1.9770 C   0  0  0  0  0  0  0  0  0  0  0  0
    2.7274   -0.4584   -1.8196 C   0  0  0  0  0  0  0  0  0  0  0  0
    1.6458   -0.8353   -1.1400 N   0  0  0  0  0  0  0  0  0  0  0  0
   -0.5815   -1.6597    0.3029 C   0  0  0  0  0  0  0  0  0  0  0  0
   -4.0154   -3.4291    1.3477 H   0  0  0  0  0  0  0  0  0  0  0  0
   -3.0958   -3.4258    2.8687 H   0  0  0  0  0  0  0  0  0  0  0  0
   -3.1047   -4.8747    1.8440 H   0  0  0  0  0  0  0  0  0  0  0  0
   -3.4567   -1.2852    2.0821 H   0  0  0  0  0  0  0  0  0  0  0  0
   -2.7872    1.0676    1.7320 H   0  0  0  0  0  0  0  0  0  0  0  0
    0.5631    2.2054   -0.2064 H   0  0  0  0  0  0  0  0  0  0  0  0
    0.9557    4.1521   -1.4092 H   0  0  0  0  0  0  0  0  0  0  0  0
    2.4421    5.1003   -1.2571 H   0  0  0  0  0  0  0  0  0  0  0  0
    1.9176    4.0699    0.0866 H   0  0  0  0  0  0  0  0  0  0  0  0
    4.0166    1.1101   -2.5352 H   0  0  0  0  0  0  0  0  0  0  0  0
    3.3050   -1.2627   -2.2703 H   0  0  0  0  0  0  0  0  0  0  0  0
    0.0640   -2.4112   -0.1259 H   0  0  0  0  0  0  0  0  0  0  0  0
  1  2  1  0
  2  3  1  0
  3  4  2  0
  4  5  1  0
  5  6  2  0
  6  7  1  0
  7  8  1  0
  8  9  2  0
  9 10  1  0
 10 11  1  0
 11 12  1  0
 10 13  2  0
 13 14  1  0
 14 15  2  0
  7 16  2  0
 16  3  1  0
 15  8  1  0
  1 17  1  0
  1 18  1  0
  1 19  1  0
  4 20  1  0
  5 21  1  0
  9 22  1  0
 12 23  1  0
 12 24  1  0
 12 25  1  0
 13 26  1  0
 14 27  1  0
 16 28  1  0
M  END
$$$$

     RDKit          3D

 28 29  0  0  0  0  0  0  0  0999 V2000
    2.1193   -1.3090    3.9239 C   0  0  0  0  0  0  0  0  0  0  0  0
    2.3997    0.0347    3.5274 O   0  0  0  0  0  0  0  0  0  0  0  0
    1.8317    0.4919    2.4022 C   0  0  0  0  0  0  0  0  0  0  0  0
    2.1394    1.8075    2.0314 C   0  0  0  0  0  0  0  0  0  0  0  0
    1.5688    2.3115    0.8808 C   0  0  0  0  0  0  0  0  0  0  0  0
    0.7446    1.6260    0.0971 N   0  0  0  0  0  0  0  0  0  0  0  0
    0.4487    0.3682    0.4515 C   0  0  0  0  0  0  0  0  0  0  0  0
   -0.4734   -0.3748   -0.4360 C   0  0  0  0  0  0  0  0  0  0  0  0
   -0.9750    0.2349   -1.5845 C   0  0  0  0  0  0  0  0  0  0  0  0
   -1.8439   -0.4885   -2.3986 C   0  0  0  0  0  0  0  0  0  0  0  0
   -2.3943   -0.0264   -3.5329 O   0  0  0  0  0  0  0  0  0  0  0  0
   -2.0648    1.3030   -3.9458 C   0  0  0  0  0  0  0  0  0  0  0  0
   -2.1714   -1.7971   -2.0232 C   0  0  0  0  0  0  0  0  0  0  0  0
   -1.6179   -2.3020   -0.8637 C   0  0  0  0  0  0  0  0  0  0  0  0
   -0.7855   -1.6277   -0.0749 N   0  0  0  0  0  0  0  0  0  0  0  0
    0.9708   -0.2423    1.5898 C   0  0  0  0  0  0  0  0  0  0  0  0
    1.0546   -1.4496    4.1129 H   0  0  0  0  0  0  0  0  0  0  0  0
    2.6674   -1.4777    4.8485 H   0  0  0  0  0  0  0  0  0  0  0  0
    2.4572   -2.0152    3.1688 H   0  0  0  0  0  0  0  0  0  0  0  0
    2.8068    2.4030    2.6397 H   0  0  0  0  0  0  0  0  0  0  0  0
    1.7798    3.3296    0.5631 H   0  0  0  0  0  0  0  0  0  0  0  0
   -0.6842    1.2482   -1.8162 H   0  0  0  0  0  0  0  0  0  0  0  0
   -2.6083    1.4893   -4.8688 H   0  0  0  0  0  0  0  0  0  0  0  0
   -2.3760    2.0342   -3.1990 H   0  0  0  0  0  0  0  0  0  0  0  0
   -0.9963    1.3953   -4.1323 H   0  0  0  0  0  0  0  0  0  0  0  0
   -2.8393   -2.3901   -2.6347 H   0  0  0  0  0  0  0  0  0  0  0  0
   -1.8537   -3.3146   -0.5431 H   0  0  0  0  0  0  0  0  0  0  0  0
    0.6954   -1.2624    1.8165 H   0  0  0  0  0  0  0  0  0  0  0  0
  1  2  1  0
  2  3  1  0
  3  4  2  0
  4  5  1  0
  5  6  2  0
  6  7  1  0
  7  8  1  0
  8  9  2  0
  9 10  1  0
 10 11  1  0
 11 12  1  0
 10 13  2  0
 13 14  1  0
 14 15  2  0
  7 16  2  0
 16  3  1  0
 15  8  1  0
  1 17  1  0
  1 18  1  0
  1 19  1  0
  4 20  1  0
  5 21  1  0
  9 22  1  0
 12 23  1  0
 12 24  1  0
 12 25  1  0
 13 26  1  0
 14 27  1  0
 16 28  1  0
M  END
$$$$

     RDKit          3D

 28 29  0  0  0  0  0  0  0  0999 V2000
    3.4021   -2.7216    1.6095 C   0  0  0  0  0  0  0  0  0  0  0  0
    2.4818   -2.2900    2.6106 O   0  0  0  0  0  0  0  0  0  0  0  0
    1.4747   -1.4856    2.2385 C   0  0  0  0  0  0  0  0  0  0  0  0
    0.6081   -1.0478    3.2462 C   0  0  0  0  0  0  0  0  0  0  0  0
   -0.4355   -0.2147    2.8981 C   0  0  0  0  0  0  0  0  0  0  0  0
   -0.6808    0.1924    1.6572 N   0  0  0  0  0  0  0  0  0  0  0  0
    0.1473   -0.2292    0.6891 C   0  0  0  0  0  0  0  0  0  0  0  0
   -0.1398    0.2362   -0.6867 C   0  0  0  0  0  0  0  0  0  0  0  0
   -1.2439    1.0511   -0.9339 C   0  0  0  0  0  0  0  0  0  0  0  0
   -1.4833    1.4732   -2.2398 C   0  0  0  0  0  0  0  0  0  0  0  0
   -2.5009    2.2617   -2.6165 O   0  0  0  0  0  0  0  0  0  0  0  0
   -3.4215    2.6989   -1.6154 C   0  0  0  0  0  0  0  0  0  0  0  0
   -0.5987    1.0620   -3.2434 C   0  0  0  0  0  0  0  0  0  0  0  0
    0.4617    0.2534   -2.8896 C   0  0  0  0  0  0  0  0  0  0  0  0
    0.7033   -0.1605   -1.6501 N   0  0  0  0  0  0  0  0  0  0  0  0
    1.2367   -1.0619    0.9322 C   0  0  0  0  0  0  0  0  0  0  0  0
    2.9002   -3.3078    0.8392 H   0  0  0  0  0  0  0  0  0  0  0  0
    4.1335   -3.3538    2.1081 H   0  0  0  0  0  0  0  0  0  0  0  0
    3.9095   -1.8709    1.1564 H   0  0  0  0  0  0  0  0  0  0  0  0
    0.7637   -1.3578    4.2703 H   0  0  0  0  0  0  0  0  0  0  0  0
   -1.1195    0.1497    3.6614 H   0  0  0  0  0  0  0  0  0  0  0  0
   -1.8876    1.3332   -0.1154 H   0  0  0  0  0  0  0  0  0  0  0  0
   -4.1674    3.3084   -2.1193 H   0  0  0  0  0  0  0  0  0  0  0  0
   -3.9160    1.8533   -1.1415 H   0  0  0  0  0  0  0  0  0  0  0  0
   -2.9143    3.2994   -0.8637 H   0  0  0  0  0  0  0  0  0  0  0  0
   -0.7514    1.3759   -4.2664 H   0  0  0  0  0  0  0  0  0  0  0  0
    1.1662   -0.0883   -3.6451 H   0  0  0  0  0  0  0  0  0  0  0  0
    1.8716   -1.3588    0.1100 H   0  0  0  0  0  0  0  0  0  0  0  0
  1  2  1  0
  2  3  1  0
  3  4  2  0
  4  5  1  0
  5  6  2  0
  6  7  1  0
  7  8  1  0
  8  9  2  0
  9 10  1  0
 10 11  1  0
 11 12  1  0
 10 13  2  0
 13 14  1  0
 14 15  2  0
  7 16  2  0
 16  3  1  0
 15  8  1  0
  1 17  1  0
  1 18  1  0
  1 19  1  0
  4 20  1  0
  5 21  1  0
  9 22  1  0
 12 23  1  0
 12 24  1  0
 12 25  1  0
 13 26  1  0
 14 27  1  0
 16 28  1  0
M  END
$$$$

     RDKit          3D

 28 29  0  0  0  0  0  0  0  0999 V2000
    1.4269   -4.2256    3.0924 C   0  0  0  0  0  0  0  0  0  0  0  0
    0.9006   -3.6203    1.9042 O   0  0  0  0  0  0  0  0  0  0  0  0
    0.8383   -2.2741    1.8577 C   0  0  0  0  0  0  0  0  0  0  0  0
    1.2531   -1.4392    2.8884 C   0  0  0  0  0  0  0  0  0  0  0  0
    1.1303   -0.0716    2.6908 C   0  0  0  0  0  0  0  0  0  0  0  0
    0.6497    0.4847    1.6007 N   0  0  0  0  0  0  0  0  0  0  0  0
    0.2517   -0.3302    0.6093 C   0  0  0  0  0  0  0  0  0  0  0  0
   -0.2776    0.3159   -0.6107 C   0  0  0  0  0  0  0  0  0  0  0  0
   -0.3516    1.6909   -0.6953 C   0  0  0  0  0  0  0  0  0  0  0  0
   -0.8468    2.2712   -1.8548 C   0  0  0  0  0  0  0  0  0  0  0  0
   -0.8961    3.6182   -1.8962 O   0  0  0  0  0  0  0  0  0  0  0  0
   -1.3961    4.2336   -3.0912 C   0  0  0  0  0  0  0  0  0  0  0  0
   -1.2585    1.4426   -2.8902 C   0  0  0  0  0  0  0  0  0  0  0  0
   -1.1422    0.0733   -2.6984 C   0  0  0  0  0  0  0  0  0  0  0  0
   -0.6677   -0.4946   -1.6080 N   0  0  0  0  0  0  0  0  0  0  0  0
    0.3265   -1.7036    0.7012 C   0  0  0  0  0  0  0  0  0  0  0  0
    0.8278   -3.9612    3.9555 H   0  0  0  0  0  0  0  0  0  0  0  0
    2.4568   -3.9242    3.2497 H   0  0  0  0  0  0  0  0  0  0  0  0
    1.3792   -5.3006    2.9316 H   0  0  0  0  0  0  0  0  0  0  0  0
    1.6610   -1.8166    3.8240 H   0  0  0  0  0  0  0  0  0  0  0  0
    1.4417    0.6189    3.4678 H   0  0  0  0  0  0  0  0  0  0  0  0
   -0.0392    2.3245    0.1258 H   0  0  0  0  0  0  0  0  0  0  0  0
   -1.3401    5.3077   -2.9258 H   0  0  0  0  0  0  0  0  0  0  0  0
   -0.7846    3.9634   -3.9430 H   0  0  0  0  0  0  0  0  0  0  0  0
   -2.4257    3.9450   -3.2694 H   0  0  0  0  0  0  0  0  0  0  0  0
   -1.6625    1.8262   -3.8256 H   0  0  0  0  0  0  0  0  0  0  0  0
   -1.4503   -0.6116   -3.4818 H   0  0  0  0  0  0  0  0  0  0  0  0
   -0.0046   -2.3429   -0.1086 H   0  0  0  0  0  0  0  0  0  0  0  0
  1  2  1  0
  2  3  1  0
  3  4  2  0
  4  5  1  0
  5  6  2  0
  6  7  1  0
  7  8  1  0
  8  9  2  0
  9 10  1  0
 10 11  1  0
 11 12  1  0
 10 13  2  0
 13 14  1  0
 14 15  2  0
  7 16  2  0
 16  3  1  0
 15  8  1  0
  1 17  1  0
  1 18  1  0
  1 19  1  0
  4 20  1  0
  5 21  1  0
  9 22  1  0
 12 23  1  0
 12 24  1  0
 12 25  1  0
 13 26  1  0
 14 27  1  0
 16 28  1  0
M  END
$$$$

     RDKit          3D

 28 29  0  0  0  0  0  0  0  0999 V2000
   -3.7392    3.6731   -0.0249 C   0  0  0  0  0  0  0  0  0  0  0  0
   -2.5705    3.0742   -0.5935 O   0  0  0  0  0  0  0  0  0  0  0  0
   -2.0561    1.9817    0.0098 C   0  0  0  0  0  0  0  0  0  0  0  0
   -2.6063    1.3785    1.1388 C   0  0  0  0  0  0  0  0  0  0  0  0
   -1.9590    0.2579    1.6418 C   0  0  0  0  0  0  0  0  0  0  0  0
   -0.8663   -0.2718    1.1290 N   0  0  0  0  0  0  0  0  0  0  0  0
   -0.3400    0.3176    0.0377 C   0  0  0  0  0  0  0  0  0  0  0  0
    0.8893   -0.2827   -0.5306 C   0  0  0  0  0  0  0  0  0  0  0  0
    1.4262   -1.4417    0.0170 C   0  0  0  0  0  0  0  0  0  0  0  0
    2.5852   -1.9738   -0.5493 C   0  0  0  0  0  0  0  0  0  0  0  0
    3.2080   -3.0785   -0.1189 O   0  0  0  0  0  0  0  0  0  0  0  0
    2.6707   -3.7588    1.0136 C   0  0  0  0  0  0  0  0  0  0  0  0
    3.1456   -1.3192   -1.6479 C   0  0  0  0  0  0  0  0  0  0  0  0
    2.5318   -0.1725   -2.1102 C   0  0  0  0  0  0  0  0  0  0  0  0
    1.4325    0.3497   -1.5766 N   0  0  0  0  0  0  0  0  0  0  0  0
   -0.9058    1.4344   -0.5467 C   0  0  0  0  0  0  0  0  0  0  0  0
   -4.5690    2.9772   -0.0344 H   0  0  0  0  0  0  0  0  0  0  0  0
   -3.9789    4.5331   -0.6545 H   0  0  0  0  0  0  0  0  0  0  0  0
   -3.5479    4.0108    0.9873 H   0  0  0  0  0  0  0  0  0  0  0  0
   -3.5039    1.7534    1.6263 H   0  0  0  0  0  0  0  0  0  0  0  0
   -2.3489   -0.2456    2.5222 H   0  0  0  0  0  0  0  0  0  0  0  0
    0.9431   -1.9065    0.8697 H   0  0  0  0  0  0  0  0  0  0  0  0
    1.6678   -4.1186    0.8034 H   0  0  0  0  0  0  0  0  0  0  0  0
    2.6563   -3.1112    1.8883 H   0  0  0  0  0  0  0  0  0  0  0  0
    3.3232   -4.6012    1.2079 H   0  0  0  0  0  0  0  0  0  0  0  0
    4.0367   -1.7116   -2.1190 H   0  0  0  0  0  0  0  0  0  0  0  0
    2.9435    0.3650   -2.9618 H   0  0  0  0  0  0  0  0  0  0  0  0
   -0.4679    1.8872   -1.4244 H   0  0  0  0  0  0  0  0  0  0  0  0
  1  2  1  0
  2  3  1  0
  3  4  2  0
  4  5  1  0
  5  6  2  0
  6  7  1  0
  7  8  1  0
  8  9  2  0
  9 10  1  0
 10 11  1  0
 11 12  1  0
 10 13  2  0
 13 14  1  0
 14 15  2  0
  7 16  2  0
 16  3  1  0
 15  8  1  0
  1 17  1  0
  1 18  1  0
  1 19  1  0
  4 20  1  0
  5 21  1  0
  9 22  1  0
 12 23  1  0
 12 24  1  0
 12 25  1  0
 13 26  1  0
 14 27  1  0
 16 28  1  0
M  END
$$$$

     RDKit          3D

 28 29  0  0  0  0  0  0  0  0999 V2000
    3.4579   -3.2141   -0.1186 C   0  0  0  0  0  0  0  0  0  0  0  0
    3.1356   -2.8058   -1.4467 O   0  0  0  0  0  0  0  0  0  0  0  0
    2.1670   -1.8934   -1.6104 C   0  0  0  0  0  0  0  0  0  0  0  0
    1.8720   -1.5161   -2.9221 C   0  0  0  0  0  0  0  0  0  0  0  0
    0.8818   -0.5764   -3.1259 C   0  0  0  0  0  0  0  0  0  0  0  0
    0.1904    0.0021   -2.1492 N   0  0  0  0  0  0  0  0  0  0  0  0
    0.4693   -0.3629   -0.8927 C   0  0  0  0  0  0  0  0  0  0  0  0
   -0.3206    0.2917    0.1753 C   0  0  0  0  0  0  0  0  0  0  0  0
   -1.2969    1.2134   -0.1462 C   0  0  0  0  0  0  0  0  0  0  0  0
   -2.0283    1.8078    0.8755 C   0  0  0  0  0  0  0  0  0  0  0  0
   -2.9658    2.7073    0.5093 O   0  0  0  0  0  0  0  0  0  0  0  0
   -3.7199    3.3537    1.5403 C   0  0  0  0  0  0  0  0  0  0  0  0
   -1.7566    1.4462    2.1939 C   0  0  0  0  0  0  0  0  0  0  0  0
   -0.7507    0.5135    2.4047 C   0  0  0  0  0  0  0  0  0  0  0  0
   -0.0457   -0.0541    1.4480 N   0  0  0  0  0  0  0  0  0  0  0  0
    1.4428   -1.3014   -0.5743 C   0  0  0  0  0  0  0  0  0  0  0  0
    4.2566   -3.9408   -0.1978 H   0  0  0  0  0  0  0  0  0  0  0  0
    3.8064   -2.3703    0.4731 H   0  0  0  0  0  0  0  0  0  0  0  0
    2.5970   -3.6693    0.3634 H   0  0  0  0  0  0  0  0  0  0  0  0
    2.4065   -1.9614   -3.7507 H   0  0  0  0  0  0  0  0  0  0  0  0
    0.6279   -0.2561   -4.1343 H   0  0  0  0  0  0  0  0  0  0  0  0
   -1.4925    1.4814   -1.1744 H   0  0  0  0  0  0  0  0  0  0  0  0
   -4.2947    2.6313    2.1062 H   0  0  0  0  0  0  0  0  0  0  0  0
   -3.0689    3.9138    2.2023 H   0  0  0  0  0  0  0  0  0  0  0  0
   -4.3975    4.0446    1.0311 H   0  0  0  0  0  0  0  0  0  0  0  0
   -2.2948    1.8670    3.0411 H   0  0  0  0  0  0  0  0  0  0  0  0
   -0.5000    0.2013    3.4149 H   0  0  0  0  0  0  0  0  0  0  0  0
    1.6215   -1.5527    0.4643 H   0  0  0  0  0  0  0  0  0  0  0  0
  1  2  1  0
  2  3  1  0
  3  4  2  0
  4  5  1  0
  5  6  2  0
  6  7  1  0
  7  8  1  0
  8  9  2  0
  9 10  1  0
 10 11  1  0
 11 12  1  0
 10 13  2  0
 13 14  1  0
 14 15  2  0
  7 16  2  0
 16  3  1  0
 15  8  1  0
  1 17  1  0
  1 18  1  0
  1 19  1  0
  4 20  1  0
  5 21  1  0
  9 22  1  0
 12 23  1  0
 12 24  1  0
 12 25  1  0
 13 26  1  0
 14 27  1  0
 16 28  1  0
M  END
$$$$

     RDKit          3D

 28 29  0  0  0  0  0  0  0  0999 V2000
    0.5032    2.7698    4.4215 C   0  0  0  0  0  0  0  0  0  0  0  0
    0.2732    2.7046    3.0094 O   0  0  0  0  0  0  0  0  0  0  0  0
    0.2826    1.4905    2.4187 C   0  0  0  0  0  0  0  0  0  0  0  0
    0.5128    0.2954    3.0964 C   0  0  0  0  0  0  0  0  0  0  0  0
    0.4886   -0.8752    2.3517 C   0  0  0  0  0  0  0  0  0  0  0  0
    0.2636   -0.9348    1.0561 N   0  0  0  0  0  0  0  0  0  0  0  0
    0.0391    0.2251    0.4054 C   0  0  0  0  0  0  0  0  0  0  0  0
   -0.2133    0.1417   -1.0511 C   0  0  0  0  0  0  0  0  0  0  0  0
   -0.1855   -1.0886   -1.6966 C   0  0  0  0  0  0  0  0  0  0  0  0
   -0.4170   -1.1268   -3.0717 C   0  0  0  0  0  0  0  0  0  0  0  0
   -0.4174   -2.2436   -3.8137 O   0  0  0  0  0  0  0  0  0  0  0  0
   -0.1790   -3.4871   -3.1639 C   0  0  0  0  0  0  0  0  0  0  0  0
   -0.6692    0.0755   -3.7327 C   0  0  0  0  0  0  0  0  0  0  0  0
   -0.6838    1.2412   -2.9927 C   0  0  0  0  0  0  0  0  0  0  0  0
   -0.4605    1.2945   -1.6815 N   0  0  0  0  0  0  0  0  0  0  0  0
    0.0407    1.4474    1.0498 C   0  0  0  0  0  0  0  0  0  0  0  0
   -0.2542    2.2132    4.9618 H   0  0  0  0  0  0  0  0  0  0  0  0
    0.4356    3.8273    4.6919 H   0  0  0  0  0  0  0  0  0  0  0  0
    1.4888    2.3941    4.6734 H   0  0  0  0  0  0  0  0  0  0  0  0
    0.7110    0.2574    4.1645 H   0  0  0  0  0  0  0  0  0  0  0  0
    0.6625   -1.8319    2.8389 H   0  0  0  0  0  0  0  0  0  0  0  0
    0.0096   -1.9896   -1.1259 H   0  0  0  0  0  0  0  0  0  0  0  0
   -0.2202   -4.2563   -3.9263 H   0  0  0  0  0  0  0  0  0  0  0  0
    0.8077   -3.5009   -2.7042 H   0  0  0  0  0  0  0  0  0  0  0  0
   -0.9407   -3.6852   -2.4146 H   0  0  0  0  0  0  0  0  0  0  0  0
   -0.8563    0.0806   -4.7989 H   0  0  0  0  0  0  0  0  0  0  0  0
   -0.8841    2.1947   -3.4760 H   0  0  0  0  0  0  0  0  0  0  0  0
   -0.1379    2.3668    0.5101 H   0  0  0  0  0  0  0  0  0  0  0  0
  1  2  1  0
  2  3  1  0
  3  4  2  0
  4  5  1  0
  5  6  2  0
  6  7  1  0
  7  8  1  0
  8  9  2  0
  9 10  1  0
 10 11  1  0
 11 12  1  0
 10 13  2  0
 13 14  1  0
 14 15  2  0
  7 16  2  0
 16  3  1  0
 15  8  1  0
  1 17  1  0
  1 18  1  0
  1 19  1  0
  4 20  1  0
  5 21  1  0
  9 22  1  0
 12 23  1  0
 12 24  1  0
 12 25  1  0
 13 26  1  0
 14 27  1  0
 16 28  1  0
M  END
$$$$

     RDKit          3D

 28 29  0  0  0  0  0  0  0  0999 V2000
   -1.9016    3.1715    2.8138 C   0  0  0  0  0  0  0  0  0  0  0  0
   -1.8198    1.8631    3.3807 O   0  0  0  0  0  0  0  0  0  0  0  0
   -1.2957    0.8812    2.6333 C   0  0  0  0  0  0  0  0  0  0  0  0
   -1.2429   -0.3919    3.2129 C   0  0  0  0  0  0  0  0  0  0  0  0
   -0.7062   -1.4244    2.4709 C   0  0  0  0  0  0  0  0  0  0  0  0
   -0.2291   -1.2893    1.2383 N   0  0  0  0  0  0  0  0  0  0  0  0
   -0.2760   -0.0694    0.6837 C   0  0  0  0  0  0  0  0  0  0  0  0
    0.2704    0.0672   -0.6857 C   0  0  0  0  0  0  0  0  0  0  0  0
    0.8014   -1.0428   -1.3402 C   0  0  0  0  0  0  0  0  0  0  0  0
    1.3098   -0.8780   -2.6265 C   0  0  0  0  0  0  0  0  0  0  0  0
    1.8574   -1.8541   -3.3640 O   0  0  0  0  0  0  0  0  0  0  0  0
    1.8910   -3.1739   -2.8215 C   0  0  0  0  0  0  0  0  0  0  0  0
    1.2600    0.3965   -3.2014 C   0  0  0  0  0  0  0  0  0  0  0  0
    0.7090    1.4259   -2.4669 C   0  0  0  0  0  0  0  0  0  0  0  0
    0.2214    1.2898   -1.2375 N   0  0  0  0  0  0  0  0  0  0  0  0
   -0.8056    1.0400    1.3384 C   0  0  0  0  0  0  0  0  0  0  0  0
   -0.9131    3.5524    2.5631 H   0  0  0  0  0  0  0  0  0  0  0  0
   -2.3441    3.8121    3.5726 H   0  0  0  0  0  0  0  0  0  0  0  0
   -2.5325    3.1707    1.9289 H   0  0  0  0  0  0  0  0  0  0  0  0
   -1.6176   -0.5503    4.2150 H   0  0  0  0  0  0  0  0  0  0  0  0
   -0.6519   -2.4267    2.8914 H   0  0  0  0  0  0  0  0  0  0  0  0
    0.8108   -1.9993   -0.8396 H   0  0  0  0  0  0  0  0  0  0  0  0
    2.3801   -3.8012   -3.5635 H   0  0  0  0  0  0  0  0  0  0  0  0
    2.4679   -3.2064   -1.8981 H   0  0  0  0  0  0  0  0  0  0  0  0
    0.8823   -3.5417   -2.6415 H   0  0  0  0  0  0  0  0  0  0  0  0
    1.6465    0.5594   -4.1979 H   0  0  0  0  0  0  0  0  0  0  0  0
    0.6561    2.4267   -2.8906 H   0  0  0  0  0  0  0  0  0  0  0  0
   -0.8280    1.9927    0.8321 H   0  0  0  0  0  0  0  0  0  0  0  0
  1  2  1  0
  2  3  1  0
  3  4  2  0
  4  5  1  0
  5  6  2  0
  6  7  1  0
  7  8  1  0
  8  9  2  0
  9 10  1  0
 10 11  1  0
 11 12  1  0
 10 13  2  0
 13 14  1  0
 14 15  2  0
  7 16  2  0
 16  3  1  0
 15  8  1  0
  1 17  1  0
  1 18  1  0
  1 19  1  0
  4 20  1  0
  5 21  1  0
  9 22  1  0
 12 23  1  0
 12 24  1  0
 12 25  1  0
 13 26  1  0
 14 27  1  0
 16 28  1  0
M  END
$$$$

     RDKit          3D

 28 29  0  0  0  0  0  0  0  0999 V2000
   -3.0813   -3.4779   -0.0725 C   0  0  0  0  0  0  0  0  0  0  0  0
   -2.6008   -3.1496    1.2310 O   0  0  0  0  0  0  0  0  0  0  0  0
   -1.7161   -2.1507    1.3500 C   0  0  0  0  0  0  0  0  0  0  0  0
   -1.2480   -1.8695    2.6389 C   0  0  0  0  0  0  0  0  0  0  0  0
   -0.3320   -0.8497    2.7930 C   0  0  0  0  0  0  0  0  0  0  0  0
    0.1351   -0.1102    1.7930 N   0  0  0  0  0  0  0  0  0  0  0  0
   -0.3098   -0.3785    0.5579 C   0  0  0  0  0  0  0  0  0  0  0  0
    0.2268    0.4544   -0.5423 C   0  0  0  0  0  0  0  0  0  0  0  0
    1.2176    1.4014   -0.2856 C   0  0  0  0  0  0  0  0  0  0  0  0
    1.6988    2.1664   -1.3451 C   0  0  0  0  0  0  0  0  0  0  0  0
    2.6520    3.1047   -1.2422 O   0  0  0  0  0  0  0  0  0  0  0  0
    3.2357    3.3356    0.0394 C   0  0  0  0  0  0  0  0  0  0  0  0
    1.1656    1.9458   -2.6196 C   0  0  0  0  0  0  0  0  0  0  0  0
    0.1856    0.9853   -2.7625 C   0  0  0  0  0  0  0  0  0  0  0  0
   -0.2860    0.2458   -1.7635 N   0  0  0  0  0  0  0  0  0  0  0  0
   -1.2344   -1.3875    0.2894 C   0  0  0  0  0  0  0  0  0  0  0  0
   -3.6184   -2.6408   -0.5149 H   0  0  0  0  0  0  0  0  0  0  0  0
   -2.2662   -3.7814   -0.7239 H   0  0  0  0  0  0  0  0  0  0  0  0
   -3.7723   -4.3073    0.0530 H   0  0  0  0  0  0  0  0  0  0  0  0
   -1.5984   -2.4459    3.4835 H   0  0  0  0  0  0  0  0  0  0  0  0
    0.0525   -0.6001    3.7792 H   0  0  0  0  0  0  0  0  0  0  0  0
    1.5898    1.5221    0.7213 H   0  0  0  0  0  0  0  0  0  0  0  0
    2.4911    3.6783    0.7572 H   0  0  0  0  0  0  0  0  0  0  0  0
    3.7214    2.4351    0.4121 H   0  0  0  0  0  0  0  0  0  0  0  0
    3.9815    4.1167   -0.0955 H   0  0  0  0  0  0  0  0  0  0  0  0
    1.5226    2.5173   -3.4647 H   0  0  0  0  0  0  0  0  0  0  0  0
   -0.2546    0.7980   -3.7395 H   0  0  0  0  0  0  0  0  0  0  0  0
   -1.5578   -1.5578   -0.7271 H   0  0  0  0  0  0  0  0  0  0  0  0
  1  2  1  0
  2  3  1  0
  3  4  2  0
  4  5  1  0
  5  6  2  0
  6  7  1  0
  7  8  1  0
  8  9  2  0
  9 10  1  0
 10 11  1  0
 11 12  1  0
 10 13  2  0
 13 14  1  0
 14 15  2  0
  7 16  2  0
 16  3  1  0
 15  8  1  0
  1 17  1  0
  1 18  1  0
  1 19  1  0
  4 20  1  0
  5 21  1  0
  9 22  1  0
 12 23  1  0
 12 24  1  0
 12 25  1  0
 13 26  1  0
 14 27  1  0
 16 28  1  0
M  END
$$$$

     RDKit          3D

 28 29  0  0  0  0  0  0  0  0999 V2000
   -1.0988    3.6195   -2.6929 C   0  0  0  0  0  0  0  0  0  0  0  0
   -0.5344    3.9815   -1.4333 O   0  0  0  0  0  0  0  0  0  0  0  0
   -0.1939    2.9995   -0.5869 C   0  0  0  0  0  0  0  0  0  0  0  0
    0.3715    3.3882    0.6331 C   0  0  0  0  0  0  0  0  0  0  0  0
    0.7476    2.4029    1.5223 C   0  0  0  0  0  0  0  0  0  0  0  0
    0.6000    1.1012    1.2961 N   0  0  0  0  0  0  0  0  0  0  0  0
    0.0505    0.7286    0.1317 C   0  0  0  0  0  0  0  0  0  0  0  0
   -0.1028   -0.7255   -0.1037 C   0  0  0  0  0  0  0  0  0  0  0  0
    0.3323   -1.6400    0.8531 C   0  0  0  0  0  0  0  0  0  0  0  0
    0.1807   -3.0008    0.5928 C   0  0  0  0  0  0  0  0  0  0  0  0
    0.5618   -3.9870    1.4192 O   0  0  0  0  0  0  0  0  0  0  0  0
    1.1804   -3.6264    2.6549 C   0  0  0  0  0  0  0  0  0  0  0  0
   -0.4136   -3.3850   -0.6154 C   0  0  0  0  0  0  0  0  0  0  0  0
   -0.8140   -2.3961   -1.4911 C   0  0  0  0  0  0  0  0  0  0  0  0
   -0.6682   -1.0950   -1.2612 N   0  0  0  0  0  0  0  0  0  0  0  0
   -0.3649    1.6392   -0.8373 C   0  0  0  0  0  0  0  0  0  0  0  0
   -1.2831    4.5485   -3.2273 H   0  0  0  0  0  0  0  0  0  0  0  0
   -2.0365    3.0859   -2.5564 H   0  0  0  0  0  0  0  0  0  0  0  0
   -0.4081    3.0088   -3.2748 H   0  0  0  0  0  0  0  0  0  0  0  0
    0.5099    4.4366    0.8586 H   0  0  0  0  0  0  0  0  0  0  0  0
    1.1968    2.6702    2.4759 H   0  0  0  0  0  0  0  0  0  0  0  0
    0.7848   -1.2782    1.7638 H   0  0  0  0  0  0  0  0  0  0  0  0
    1.3984   -4.5528    3.1805 H   0  0  0  0  0  0  0  0  0  0  0  0
    0.5143   -3.0197    3.2600 H   0  0  0  0  0  0  0  0  0  0  0  0
    2.1149   -3.0904    2.4791 H   0  0  0  0  0  0  0  0  0  0  0  0
   -0.5502   -4.4332   -0.8442 H   0  0  0  0  0  0  0  0  0  0  0  0
   -1.2755   -2.6579   -2.4410 H   0  0  0  0  0  0  0  0  0  0  0  0
   -0.7998    1.2774   -1.7555 H   0  0  0  0  0  0  0  0  0  0  0  0
  1  2  1  0
  2  3  1  0
  3  4  2  0
  4  5  1  0
  5  6  2  0
  6  7  1  0
  7  8  1  0
  8  9  2  0
  9 10  1  0
 10 11  1  0
 11 12  1  0
 10 13  2  0
 13 14  1  0
 14 15  2  0
  7 16  2  0
 16  3  1  0
 15  8  1  0
  1 17  1  0
  1 18  1  0
  1 19  1  0
  4 20  1  0
  5 21  1  0
  9 22  1  0
 12 23  1  0
 12 24  1  0
 12 25  1  0
 13 26  1  0
 14 27  1  0
 16 28  1  0
M  END
$$$$
