
     RDKit          3D

 20 21  0  0  0  0  0  0  0  0999 V2000
    1.8583    3.5234    2.4941 Br  0  0  0  0  0  0  0  0  0  0  0  0
    0.7924    2.6924    1.1569 C   0  0  0  0  0  0  0  0  0  0  0  0
    0.0174    3.4528    0.3099 C   0  0  0  0  0  0  0  0  0  0  0  0
   -0.7378    2.7710   -0.6418 C   0  0  0  0  0  0  0  0  0  0  0  0
   -0.7383    1.4567   -0.7695 N   0  0  0  0  0  0  0  0  0  0  0  0
    0.0220    0.7415    0.0692 C   0  0  0  0  0  0  0  0  0  0  0  0
   -0.0018   -0.7412   -0.0817 C   0  0  0  0  0  0  0  0  0  0  0  0
   -0.8024   -1.3108   -1.0576 C   0  0  0  0  0  0  0  0  0  0  0  0
   -0.8010   -2.6922   -1.1504 C   0  0  0  0  0  0  0  0  0  0  0  0
   -1.8936   -3.5221   -2.4667 Br  0  0  0  0  0  0  0  0  0  0  0  0
   -0.0265   -3.4537   -0.3052 C   0  0  0  0  0  0  0  0  0  0  0  0
    0.7443   -2.7716    0.6334 C   0  0  0  0  0  0  0  0  0  0  0  0
    0.7626   -1.4565    0.7500 N   0  0  0  0  0  0  0  0  0  0  0  0
    0.8107    1.3113    1.0544 C   0  0  0  0  0  0  0  0  0  0  0  0
   -0.0123    4.5335    0.3735 H   0  0  0  0  0  0  0  0  0  0  0  0
   -1.3678    3.3281   -1.3379 H   0  0  0  0  0  0  0  0  0  0  0  0
   -1.4111   -0.7020   -1.7146 H   0  0  0  0  0  0  0  0  0  0  0  0
   -0.0133   -4.5351   -0.3572 H   0  0  0  0  0  0  0  0  0  0  0  0
    1.3782   -3.3278    1.3260 H   0  0  0  0  0  0  0  0  0  0  0  0
    1.4199    0.7023    1.7151 H   0  0  0  0  0  0  0  0  0  0  0  0
  1  2  1  0
  2  3  2  0
  3  4  1  0
  4  5  2  0
  5  6  1  0
  6  7  1  0
  7  8  2  0
  8  9  1  0
  9 10  1  0
  9 11  2  0
 11 12  1  0
 12 13  2  0
  6 14  2  0
 14  2  1  0
 13  7  1  0
  3 15  1  0
  4 16  1  0
  8 17  1  0
 11 18  1  0
 12 19  1  0
 14 20  1  0
M  END
$$$$

     RDKit          3D

 20 21  0  0  0  0  0  0  0  0999 V2000
   -1.7874    3.1218    3.0185 Br  0  0  0  0  0  0  0  0  0  0  0  0
   -1.5173    2.2566    1.3487 C   0  0  0  0  0  0  0  0  0  0  0  0
   -2.1876    2.6804    0.2224 C   0  0  0  0  0  0  0  0  0  0  0  0
   -1.9404    1.9873   -0.9605 C   0  0  0  0  0  0  0  0  0  0  0  0
   -1.1047    0.9690   -1.0509 N   0  0  0  0  0  0  0  0  0  0  0  0
   -0.4650    0.5808    0.0591 C   0  0  0  0  0  0  0  0  0  0  0  0
    0.4757   -0.5694   -0.0606 C   0  0  0  0  0  0  0  0  0  0  0  0
    0.6170   -1.2038   -1.2834 C   0  0  0  0  0  0  0  0  0  0  0  0
    1.4928   -2.2755   -1.3411 C   0  0  0  0  0  0  0  0  0  0  0  0
    1.7154   -3.1837   -2.9957 Br  0  0  0  0  0  0  0  0  0  0  0  0
    2.1939   -2.6763   -0.2259 C   0  0  0  0  0  0  0  0  0  0  0  0
    1.9745   -1.9614    0.9493 C   0  0  0  0  0  0  0  0  0  0  0  0
    1.1438   -0.9373    1.0396 N   0  0  0  0  0  0  0  0  0  0  0  0
   -0.6355    1.1910    1.2903 C   0  0  0  0  0  0  0  0  0  0  0  0
   -2.8804    3.5114    0.2465 H   0  0  0  0  0  0  0  0  0  0  0  0
   -2.4458    2.2815   -1.8821 H   0  0  0  0  0  0  0  0  0  0  0  0
    0.0631   -0.8741   -2.1562 H   0  0  0  0  0  0  0  0  0  0  0  0
    2.8839   -3.5107   -0.2507 H   0  0  0  0  0  0  0  0  0  0  0  0
    2.5072   -2.2365    1.8626 H   0  0  0  0  0  0  0  0  0  0  0  0
   -0.1033    0.8487    2.1702 H   0  0  0  0  0  0  0  0  0  0  0  0
  1  2  1  0
  2  3  2  0
  3  4  1  0
  4  5  2  0
  5  6  1  0
  6  7  1  0
  7  8  2  0
  8  9  1  0
  9 10  1  0
  9 11  2  0
 11 12  1  0
 12 13  2  0
  6 14  2  0
 14  2  1  0
 13  7  1  0
  3 15  1  0
  4 16  1  0
  8 17  1  0
 11 18  1  0
 12 19  1  0
 14 20  1  0
M  END
$$$$

     RDKit          3D

 20 21  0  0  0  0  0  0  0  0999 V2000
    4.4605    1.3955   -0.4749 Br  0  0  0  0  0  0  0  0  0  0  0  0
    2.9315    0.6771    0.3975 C   0  0  0  0  0  0  0  0  0  0  0  0
    3.0162    0.2244    1.6946 C   0  0  0  0  0  0  0  0  0  0  0  0
    1.8541   -0.2916    2.2622 C   0  0  0  0  0  0  0  0  0  0  0  0
    0.7013   -0.3734    1.6227 N   0  0  0  0  0  0  0  0  0  0  0  0
    0.6475    0.0716    0.3621 C   0  0  0  0  0  0  0  0  0  0  0  0
   -0.6591   -0.0351   -0.3468 C   0  0  0  0  0  0  0  0  0  0  0  0
   -1.7243   -0.6575    0.2819 C   0  0  0  0  0  0  0  0  0  0  0  0
   -2.9119   -0.7459   -0.4254 C   0  0  0  0  0  0  0  0  0  0  0  0
   -4.3931   -1.6087    0.3909 Br  0  0  0  0  0  0  0  0  0  0  0  0
   -3.0197   -0.2181   -1.6935 C   0  0  0  0  0  0  0  0  0  0  0  0
   -1.8848    0.3934   -2.2217 C   0  0  0  0  0  0  0  0  0  0  0  0
   -0.7363    0.4827   -1.5770 N   0  0  0  0  0  0  0  0  0  0  0  0
    1.7361    0.6163   -0.2984 C   0  0  0  0  0  0  0  0  0  0  0  0
    3.9401    0.2656    2.2581 H   0  0  0  0  0  0  0  0  0  0  0  0
    1.8665   -0.6600    3.2901 H   0  0  0  0  0  0  0  0  0  0  0  0
   -1.6277   -1.0657    1.2819 H   0  0  0  0  0  0  0  0  0  0  0  0
   -3.9382   -0.2747   -2.2634 H   0  0  0  0  0  0  0  0  0  0  0  0
   -1.9156    0.8312   -3.2210 H   0  0  0  0  0  0  0  0  0  0  0  0
    1.6570    0.9730   -1.3199 H   0  0  0  0  0  0  0  0  0  0  0  0
  1  2  1  0
  2  3  2  0
  3  4  1  0
  4  5  2  0
  5  6  1  0
  6  7  1  0
  7  8  2  0
  8  9  1  0
  9 10  1  0
  9 11  2  0
 11 12  1  0
 12 13  2  0
  6 14  2  0
 14  2  1  0
 13  7  1  0
  3 15  1  0
  4 16  1  0
  8 17  1  0
 11 18  1  0
 12 19  1  0
 14 20  1  0
M  END
$$$$

     RDKit          3D

 20 21  0  0  0  0  0  0  0  0999 V2000
   -0.1366    0.0871    4.6914 Br  0  0  0  0  0  0  0  0  0  0  0  0
    0.6501    0.0365    2.9623 C   0  0  0  0  0  0  0  0  0  0  0  0
    2.0200    0.0095    2.8183 C   0  0  0  0  0  0  0  0  0  0  0  0
    2.5193   -0.0202    1.5175 C   0  0  0  0  0  0  0  0  0  0  0  0
    1.7559   -0.0191    0.4385 N   0  0  0  0  0  0  0  0  0  0  0  0
    0.4291    0.0011    0.6093 C   0  0  0  0  0  0  0  0  0  0  0  0
   -0.4224   -0.0050   -0.6135 C   0  0  0  0  0  0  0  0  0  0  0  0
    0.1825   -0.0359   -1.8585 C   0  0  0  0  0  0  0  0  0  0  0  0
   -0.6526   -0.0304   -2.9637 C   0  0  0  0  0  0  0  0  0  0  0  0
    0.1245   -0.0692   -4.6979 Br  0  0  0  0  0  0  0  0  0  0  0  0
   -2.0219   -0.0032   -2.8137 C   0  0  0  0  0  0  0  0  0  0  0  0
   -2.5177    0.0184   -1.5120 C   0  0  0  0  0  0  0  0  0  0  0  0
   -1.7506    0.0172   -0.4364 N   0  0  0  0  0  0  0  0  0  0  0  0
   -0.1797    0.0287    1.8526 C   0  0  0  0  0  0  0  0  0  0  0  0
    2.6892    0.0091    3.6711 H   0  0  0  0  0  0  0  0  0  0  0  0
    3.5977   -0.0408    1.3496 H   0  0  0  0  0  0  0  0  0  0  0  0
    1.2626   -0.0653   -1.9599 H   0  0  0  0  0  0  0  0  0  0  0  0
   -2.6933    0.0074   -3.6642 H   0  0  0  0  0  0  0  0  0  0  0  0
   -3.5967    0.0323   -1.3407 H   0  0  0  0  0  0  0  0  0  0  0  0
   -1.2595    0.0417    1.9499 H   0  0  0  0  0  0  0  0  0  0  0  0
  1  2  1  0
  2  3  2  0
  3  4  1  0
  4  5  2  0
  5  6  1  0
  6  7  1  0
  7  8  2  0
  8  9  1  0
  9 10  1  0
  9 11  2  0
 11 12  1  0
 12 13  2  0
  6 14  2  0
 14  2  1  0
 13  7  1  0
  3 15  1  0
  4 16  1  0
  8 17  1  0
 11 18  1  0
 12 19  1  0
 14 20  1  0
M  END
$$$$

     RDKit          3D

 20 21  0  0  0  0  0  0  0  0999 V2000
    0.0823   -1.4256   -4.4768 Br  0  0  0  0  0  0  0  0  0  0  0  0
    0.4948   -1.4507   -2.6208 C   0  0  0  0  0  0  0  0  0  0  0  0
    1.3203   -2.4232   -2.1007 C   0  0  0  0  0  0  0  0  0  0  0  0
    1.5770   -2.3699   -0.7324 C   0  0  0  0  0  0  0  0  0  0  0  0
    1.0702   -1.4542    0.0730 N   0  0  0  0  0  0  0  0  0  0  0  0
    0.2715   -0.5204   -0.4591 C   0  0  0  0  0  0  0  0  0  0  0  0
   -0.2849    0.5104    0.4626 C   0  0  0  0  0  0  0  0  0  0  0  0
    0.0528    0.4735    1.8050 C   0  0  0  0  0  0  0  0  0  0  0  0
   -0.4831    1.4583    2.6177 C   0  0  0  0  0  0  0  0  0  0  0  0
   -0.0462    1.4594    4.4671 Br  0  0  0  0  0  0  0  0  0  0  0  0
   -1.3169    2.4239    2.0994 C   0  0  0  0  0  0  0  0  0  0  0  0
   -1.5908    2.3589    0.7352 C   0  0  0  0  0  0  0  0  0  0  0  0
   -1.0952    1.4350   -0.0655 N   0  0  0  0  0  0  0  0  0  0  0  0
   -0.0475   -0.4697   -1.8059 C   0  0  0  0  0  0  0  0  0  0  0  0
    1.7523   -3.2007   -2.7176 H   0  0  0  0  0  0  0  0  0  0  0  0
    2.2299   -3.1138   -0.2706 H   0  0  0  0  0  0  0  0  0  0  0  0
    0.7078   -0.2944    2.2013 H   0  0  0  0  0  0  0  0  0  0  0  0
   -1.7482    3.2021    2.7161 H   0  0  0  0  0  0  0  0  0  0  0  0
   -2.2498    3.0981    0.2767 H   0  0  0  0  0  0  0  0  0  0  0  0
   -0.6963    0.3029   -2.2047 H   0  0  0  0  0  0  0  0  0  0  0  0
  1  2  1  0
  2  3  2  0
  3  4  1  0
  4  5  2  0
  5  6  1  0
  6  7  1  0
  7  8  2  0
  8  9  1  0
  9 10  1  0
  9 11  2  0
 11 12  1  0
 12 13  2  0
  6 14  2  0
 14  2  1  0
 13  7  1  0
  3 15  1  0
  4 16  1  0
  8 17  1  0
 11 18  1  0
 12 19  1  0
 14 20  1  0
M  END
$$$$

     RDKit          3D

 20 21  0  0  0  0  0  0  0  0999 V2000
    1.9802    4.2687    0.0209 Br  0  0  0  0  0  0  0  0  0  0  0  0
    0.7072    2.9275   -0.4144 C   0  0  0  0  0  0  0  0  0  0  0  0
   -0.3696    3.2206   -1.2246 C   0  0  0  0  0  0  0  0  0  0  0  0
   -1.2547    2.1816   -1.5025 C   0  0  0  0  0  0  0  0  0  0  0  0
   -1.1096    0.9566   -1.0342 N   0  0  0  0  0  0  0  0  0  0  0  0
   -0.0562    0.6981   -0.2492 C   0  0  0  0  0  0  0  0  0  0  0  0
    0.0827   -0.6943    0.2637 C   0  0  0  0  0  0  0  0  0  0  0  0
   -0.8928   -1.6238   -0.0584 C   0  0  0  0  0  0  0  0  0  0  0  0
   -0.7312   -2.9060    0.4371 C   0  0  0  0  0  0  0  0  0  0  0  0
   -2.0513   -4.2129    0.0306 Br  0  0  0  0  0  0  0  0  0  0  0  0
    0.3621   -3.2320    1.2066 C   0  0  0  0  0  0  0  0  0  0  0  0
    1.2811   -2.2164    1.4651 C   0  0  0  0  0  0  0  0  0  0  0  0
    1.1522   -0.9787    1.0155 N   0  0  0  0  0  0  0  0  0  0  0  0
    0.8888    1.6508    0.0914 C   0  0  0  0  0  0  0  0  0  0  0  0
   -0.5284    4.2117   -1.6300 H   0  0  0  0  0  0  0  0  0  0  0  0
   -2.1230    2.3544   -2.1419 H   0  0  0  0  0  0  0  0  0  0  0  0
   -1.7453   -1.3573   -0.6724 H   0  0  0  0  0  0  0  0  0  0  0  0
    0.5083   -4.2306    1.6010 H   0  0  0  0  0  0  0  0  0  0  0  0
    2.1667   -2.4233    2.0692 H   0  0  0  0  0  0  0  0  0  0  0  0
    1.7327    1.4053    0.7264 H   0  0  0  0  0  0  0  0  0  0  0  0
  1  2  1  0
  2  3  2  0
  3  4  1  0
  4  5  2  0
  5  6  1  0
  6  7  1  0
  7  8  2  0
  8  9  1  0
  9 10  1  0
  9 11  2  0
 11 12  1  0
 12 13  2  0
  6 14  2  0
 14  2  1  0
 13  7  1  0
  3 15  1  0
  4 16  1  0
  8 17  1  0
 11 18  1  0
 12 19  1  0
 14 20  1  0
M  END
$$$$

     RDKit          3D

 20 21  0  0  0  0  0  0  0  0999 V2000
   -2.5424    3.5255    1.7913 Br  0  0  0  0  0  0  0  0  0  0  0  0
   -0.9785    2.5721    1.2834 C   0  0  0  0  0  0  0  0  0  0  0  0
    0.2691    3.1088    1.5084 C   0  0  0  0  0  0  0  0  0  0  0  0
    1.3663    2.3515    1.1050 C   0  0  0  0  0  0  0  0  0  0  0  0
    1.2683    1.1663    0.5286 N   0  0  0  0  0  0  0  0  0  0  0  0
    0.0434    0.6687    0.3232 C   0  0  0  0  0  0  0  0  0  0  0  0
   -0.0482   -0.6699   -0.3260 C   0  0  0  0  0  0  0  0  0  0  0  0
    1.1151   -1.3121   -0.7174 C   0  0  0  0  0  0  0  0  0  0  0  0
    0.9783   -2.5552   -1.3109 C   0  0  0  0  0  0  0  0  0  0  0  0
    2.5434   -3.4745   -1.8724 Br  0  0  0  0  0  0  0  0  0  0  0  0
   -0.2657   -3.1191   -1.4916 C   0  0  0  0  0  0  0  0  0  0  0  0
   -1.3650   -2.3801   -1.0594 C   0  0  0  0  0  0  0  0  0  0  0  0
   -1.2689   -1.1889   -0.4979 N   0  0  0  0  0  0  0  0  0  0  0  0
   -1.1185    1.3312    0.6852 C   0  0  0  0  0  0  0  0  0  0  0  0
    0.3997    4.0777    1.9740 H   0  0  0  0  0  0  0  0  0  0  0  0
    2.3776    2.7309    1.2615 H   0  0  0  0  0  0  0  0  0  0  0  0
    2.0890   -0.8615   -0.5623 H   0  0  0  0  0  0  0  0  0  0  0  0
   -0.3922   -4.0930   -1.9473 H   0  0  0  0  0  0  0  0  0  0  0  0
   -2.3741   -2.7774   -1.1821 H   0  0  0  0  0  0  0  0  0  0  0  0
   -2.0965    0.8990    0.5068 H   0  0  0  0  0  0  0  0  0  0  0  0
  1  2  1  0
  2  3  2  0
  3  4  1  0
  4  5  2  0
  5  6  1  0
  6  7  1  0
  7  8  2  0
  8  9  1  0
  9 10  1  0
  9 11  2  0
 11 12  1  0
 12 13  2  0
  6 14  2  0
 14  2  1  0
 13  7  1  0
  3 15  1  0
  4 16  1  0
  8 17  1  0
 11 18  1  0
 12 19  1  0
 14 20  1  0
M  END
$$$$

     RDKit          3D

 20 21  0  0  0  0  0  0  0  0999 V2000
    3.3174    2.6744    1.9639 Br  0  0  0  0  0  0  0  0  0  0  0  0
    2.5921    1.1697    1.0521 C   0  0  0  0  0  0  0  0  0  0  0  0
    3.4047    0.1299    0.6562 C   0  0  0  0  0  0  0  0  0  0  0  0
    2.7937   -0.9357   -0.0021 C   0  0  0  0  0  0  0  0  0  0  0  0
    1.4996   -0.9901   -0.2616 N   0  0  0  0  0  0  0  0  0  0  0  0
    0.7339    0.0307    0.1367 C   0  0  0  0  0  0  0  0  0  0  0  0
   -0.7257   -0.0457   -0.1545 C   0  0  0  0  0  0  0  0  0  0  0  0
   -1.2376   -1.1513   -0.8133 C   0  0  0  0  0  0  0  0  0  0  0  0
   -2.6018   -1.1650   -1.0536 C   0  0  0  0  0  0  0  0  0  0  0  0
   -3.3558   -2.6582   -1.9532 Br  0  0  0  0  0  0  0  0  0  0  0  0
   -3.4019   -0.1205   -0.6476 C   0  0  0  0  0  0  0  0  0  0  0  0
   -2.7764    0.9392    0.0032 C   0  0  0  0  0  0  0  0  0  0  0  0
   -1.4799    0.9834    0.2504 N   0  0  0  0  0  0  0  0  0  0  0  0
    1.2306    1.1395    0.8031 C   0  0  0  0  0  0  0  0  0  0  0  0
    4.4715    0.1300    0.8427 H   0  0  0  0  0  0  0  0  0  0  0  0
    3.3910   -1.7867   -0.3340 H   0  0  0  0  0  0  0  0  0  0  0  0
   -0.5999   -1.9710   -1.1252 H   0  0  0  0  0  0  0  0  0  0  0  0
   -4.4695   -0.1118   -0.8284 H   0  0  0  0  0  0  0  0  0  0  0  0
   -3.3635    1.7922    0.3457 H   0  0  0  0  0  0  0  0  0  0  0  0
    0.5775    1.9470    1.1195 H   0  0  0  0  0  0  0  0  0  0  0  0
  1  2  1  0
  2  3  2  0
  3  4  1  0
  4  5  2  0
  5  6  1  0
  6  7  1  0
  7  8  2  0
  8  9  1  0
  9 10  1  0
  9 11  2  0
 11 12  1  0
 12 13  2  0
  6 14  2  0
 14  2  1  0
 13  7  1  0
  3 15  1  0
  4 16  1  0
  8 17  1  0
 11 18  1  0
 12 19  1  0
 14 20  1  0
M  END
$$$$

     RDKit          3D

 20 21  0  0  0  0  0  0  0  0999 V2000
    3.5107   -0.4520   -3.0790 Br  0  0  0  0  0  0  0  0  0  0  0  0
    1.8752    0.2103   -2.3741 C   0  0  0  0  0  0  0  0  0  0  0  0
    1.1331    1.1347   -3.0760 C   0  0  0  0  0  0  0  0  0  0  0  0
   -0.0498    1.5771   -2.4871 C   0  0  0  0  0  0  0  0  0  0  0  0
   -0.4876    1.1518   -1.3158 N   0  0  0  0  0  0  0  0  0  0  0  0
    0.2482    0.2464   -0.6601 C   0  0  0  0  0  0  0  0  0  0  0  0
   -0.2583   -0.2352    0.6560 C   0  0  0  0  0  0  0  0  0  0  0  0
   -1.4370    0.2847    1.1656 C   0  0  0  0  0  0  0  0  0  0  0  0
   -1.8616   -0.1936    2.3945 C   0  0  0  0  0  0  0  0  0  0  0  0
   -3.4684    0.4890    3.1424 Br  0  0  0  0  0  0  0  0  0  0  0  0
   -1.1365   -1.1544    3.0638 C   0  0  0  0  0  0  0  0  0  0  0  0
    0.0300   -1.6082    2.4526 C   0  0  0  0  0  0  0  0  0  0  0  0
    0.4666   -1.1684    1.2847 N   0  0  0  0  0  0  0  0  0  0  0  0
    1.4459   -0.2549   -1.1424 C   0  0  0  0  0  0  0  0  0  0  0  0
    1.4466    1.5083   -4.0427 H   0  0  0  0  0  0  0  0  0  0  0  0
   -0.6697    2.3151   -3.0003 H   0  0  0  0  0  0  0  0  0  0  0  0
   -1.9990    1.0397    0.6302 H   0  0  0  0  0  0  0  0  0  0  0  0
   -1.4509   -1.5437    4.0241 H   0  0  0  0  0  0  0  0  0  0  0  0
    0.6412   -2.3679    2.9407 H   0  0  0  0  0  0  0  0  0  0  0  0
    2.0213   -0.9788   -0.5772 H   0  0  0  0  0  0  0  0  0  0  0  0
  1  2  1  0
  2  3  2  0
  3  4  1  0
  4  5  2  0
  5  6  1  0
  6  7  1  0
  7  8  2  0
  8  9  1  0
  9 10  1  0
  9 11  2  0
 11 12  1  0
 12 13  2  0
  6 14  2  0
 14  2  1  0
 13  7  1  0
  3 15  1  0
  4 16  1  0
  8 17  1  0
 11 18  1  0
 12 19  1  0
 14 20  1  0
M  END
$$$$

     RDKit          3D

 20 21  0  0  0  0  0  0  0  0999 V2000
   -4.4781   -0.8599   -1.1446 Br  0  0  0  0  0  0  0  0  0  0  0  0
   -2.9952    0.1253   -0.4788 C   0  0  0  0  0  0  0  0  0  0  0  0
   -3.1701    1.4007    0.0100 C   0  0  0  0  0  0  0  0  0  0  0  0
   -2.0363    2.0611    0.4776 C   0  0  0  0  0  0  0  0  0  0  0  0
   -0.8275    1.5280    0.4800 N   0  0  0  0  0  0  0  0  0  0  0  0
   -0.6866    0.2869   -0.0042 C   0  0  0  0  0  0  0  0  0  0  0  0
    0.6857   -0.2957   -0.0042 C   0  0  0  0  0  0  0  0  0  0  0  0
    1.7268    0.4376    0.5392 C   0  0  0  0  0  0  0  0  0  0  0  0
    2.9860   -0.1384    0.5165 C   0  0  0  0  0  0  0  0  0  0  0  0
    4.4421    0.8236    1.2696 Br  0  0  0  0  0  0  0  0  0  0  0  0
    3.1801   -1.3881   -0.0283 C   0  0  0  0  0  0  0  0  0  0  0  0
    2.0582   -2.0328   -0.5467 C   0  0  0  0  0  0  0  0  0  0  0  0
    0.8425   -1.5130   -0.5359 N   0  0  0  0  0  0  0  0  0  0  0  0
   -1.7416   -0.4632   -0.4947 C   0  0  0  0  0  0  0  0  0  0  0  0
   -4.1413    1.8796    0.0288 H   0  0  0  0  0  0  0  0  0  0  0  0
   -2.1218    3.0733    0.8790 H   0  0  0  0  0  0  0  0  0  0  0  0
    1.5581    1.4212    0.9641 H   0  0  0  0  0  0  0  0  0  0  0  0
    4.1568   -1.8546   -0.0608 H   0  0  0  0  0  0  0  0  0  0  0  0
    2.1549   -3.0242   -0.9925 H   0  0  0  0  0  0  0  0  0  0  0  0
   -1.5927   -1.4675   -0.8740 H   0  0  0  0  0  0  0  0  0  0  0  0
  1  2  1  0
  2  3  2  0
  3  4  1  0
  4  5  2  0
  5  6  1  0
  6  7  1  0
  7  8  2  0
  8  9  1  0
  9 10  1  0
  9 11  2  0
 11 12  1  0
 12 13  2  0
  6 14  2  0
 14  2  1  0
 13  7  1  0
  3 15  1  0
  4 16  1  0
  8 17  1  0
 11 18  1  0
 12 19  1  0
 14 20  1  0
M  END
$$$$

     RDKit          3D

 20 21  0  0  0  0  0  0  0  0999 V2000
   -1.5253   -2.2009    3.8632 Br  0  0  0  0  0  0  0  0  0  0  0  0
   -0.6609   -2.0064    2.1826 C   0  0  0  0  0  0  0  0  0  0  0  0
   -0.0561   -3.0876    1.5811 C   0  0  0  0  0  0  0  0  0  0  0  0
    0.5548   -2.8659    0.3493 C   0  0  0  0  0  0  0  0  0  0  0  0
    0.5722   -1.6934   -0.2583 N   0  0  0  0  0  0  0  0  0  0  0  0
   -0.0189   -0.6584    0.3498 C   0  0  0  0  0  0  0  0  0  0  0  0
    0.0222    0.6602   -0.3469 C   0  0  0  0  0  0  0  0  0  0  0  0
    0.6033    0.7494   -1.6012 C   0  0  0  0  0  0  0  0  0  0  0  0
    0.6200    1.9962   -2.2037 C   0  0  0  0  0  0  0  0  0  0  0  0
    1.4089    2.1725   -3.9234 Br  0  0  0  0  0  0  0  0  0  0  0  0
    0.0731    3.0906   -1.5738 C   0  0  0  0  0  0  0  0  0  0  0  0
   -0.4839    2.8825   -0.3146 C   0  0  0  0  0  0  0  0  0  0  0  0
   -0.5132    1.7081    0.2884 N   0  0  0  0  0  0  0  0  0  0  0  0
   -0.6551   -0.7612    1.5760 C   0  0  0  0  0  0  0  0  0  0  0  0
   -0.0446   -4.0674    2.0398 H   0  0  0  0  0  0  0  0  0  0  0  0
    1.0544   -3.6862   -0.1681 H   0  0  0  0  0  0  0  0  0  0  0  0
    1.0278   -0.1205   -2.0873 H   0  0  0  0  0  0  0  0  0  0  0  0
    0.0736    4.0736   -2.0268 H   0  0  0  0  0  0  0  0  0  0  0  0
   -0.9271    3.7168    0.2320 H   0  0  0  0  0  0  0  0  0  0  0  0
   -1.1252    0.0979    2.0420 H   0  0  0  0  0  0  0  0  0  0  0  0
  1  2  1  0
  2  3  2  0
  3  4  1  0
  4  5  2  0
  5  6  1  0
  6  7  1  0
  7  8  2  0
  8  9  1  0
  9 10  1  0
  9 11  2  0
 11 12  1  0
 12 13  2  0
  6 14  2  0
 14  2  1  0
 13  7  1  0
  3 15  1  0
  4 16  1  0
  8 17  1  0
 11 18  1  0
 12 19  1  0
 14 20  1  0
M  END
$$$$

     RDKit          3D

 20 21  0  0  0  0  0  0  0  0999 V2000
   -1.3671    3.9450   -2.1461 Br  0  0  0  0  0  0  0  0  0  0  0  0
   -0.1529    2.6525   -1.4631 C   0  0  0  0  0  0  0  0  0  0  0  0
    1.2058    2.8350   -1.5918 C   0  0  0  0  0  0  0  0  0  0  0  0
    2.0303    1.8380   -1.0758 C   0  0  0  0  0  0  0  0  0  0  0  0
    1.5766    0.7531   -0.4738 N   0  0  0  0  0  0  0  0  0  0  0  0
    0.2517    0.6093   -0.3490 C   0  0  0  0  0  0  0  0  0  0  0  0
   -0.2455   -0.6077    0.3537 C   0  0  0  0  0  0  0  0  0  0  0  0
    0.6576   -1.5777    0.7529 C   0  0  0  0  0  0  0  0  0  0  0  0
    0.1454   -2.6906    1.3971 C   0  0  0  0  0  0  0  0  0  0  0  0
    1.3440   -4.0603    1.9386 Br  0  0  0  0  0  0  0  0  0  0  0  0
   -1.2060   -2.8089    1.6340 C   0  0  0  0  0  0  0  0  0  0  0  0
   -2.0201   -1.7690    1.1927 C   0  0  0  0  0  0  0  0  0  0  0  0
   -1.5636   -0.6986    0.5686 N   0  0  0  0  0  0  0  0  0  0  0  0
   -0.6622    1.5279   -0.8350 C   0  0  0  0  0  0  0  0  0  0  0  0
    1.6251    3.7114   -2.0711 H   0  0  0  0  0  0  0  0  0  0  0  0
    3.1155    1.9291   -1.1619 H   0  0  0  0  0  0  0  0  0  0  0  0
    1.7207   -1.4704    0.5693 H   0  0  0  0  0  0  0  0  0  0  0  0
   -1.6262   -3.6688    2.1396 H   0  0  0  0  0  0  0  0  0  0  0  0
   -3.0988   -1.8159    1.3571 H   0  0  0  0  0  0  0  0  0  0  0  0
   -1.7303    1.3666   -0.7361 H   0  0  0  0  0  0  0  0  0  0  0  0
  1  2  1  0
  2  3  2  0
  3  4  1  0
  4  5  2  0
  5  6  1  0
  6  7  1  0
  7  8  2  0
  8  9  1  0
  9 10  1  0
  9 11  2  0
 11 12  1  0
 12 13  2  0
  6 14  2  0
 14  2  1  0
 13  7  1  0
  3 15  1  0
  4 16  1  0
  8 17  1  0
 11 18  1  0
 12 19  1  0
 14 20  1  0
M  END
$$$$
