
     RDKit          3D

 27 28  0  0  0  0  0  0  0  0999 V2000
   -0.5837    0.8449    5.0007 C   0  0  0  0  0  0  0  0  0  0  0  0
   -0.3576    0.6392    3.5432 C   0  0  0  0  0  0  0  0  0  0  0  0
    0.4796    1.4653    2.7911 C   0  0  0  0  0  0  0  0  0  0  0  0
    0.6412    1.2385    1.4431 C   0  0  0  0  0  0  0  0  0  0  0  0
   -0.0351    0.1829    0.8383 C   0  0  0  0  0  0  0  0  0  0  0  0
    0.0987   -0.1095   -0.6122 C   0  0  0  0  0  0  0  0  0  0  0  0
   -0.7706   -1.0200   -1.2222 C   0  0  0  0  0  0  0  0  0  0  0  0
   -0.6740   -1.2981   -2.5668 C   0  0  0  0  0  0  0  0  0  0  0  0
    0.3010   -0.6804   -3.3534 C   0  0  0  0  0  0  0  0  0  0  0  0
    0.4369   -0.9476   -4.8001 C   0  0  0  0  0  0  0  0  0  0  0  0
    1.2704   -0.4186   -5.5067 O   0  0  0  0  0  0  0  0  0  0  0  0
   -0.4418   -1.8308   -5.2778 O   0  0  0  0  0  0  0  0  0  0  0  0
    1.1751    0.2178   -2.7475 C   0  0  0  0  0  0  0  0  0  0  0  0
    1.0801    0.4964   -1.4061 C   0  0  0  0  0  0  0  0  0  0  0  0
   -0.8481   -0.6130    1.5437 N   0  0  0  0  0  0  0  0  0  0  0  0
   -0.9947   -0.3944    2.8431 C   0  0  0  0  0  0  0  0  0  0  0  0
    0.1591    1.5109    5.4329 H   0  0  0  0  0  0  0  0  0  0  0  0
   -0.5520   -0.0966    5.5386 H   0  0  0  0  0  0  0  0  0  0  0  0
   -1.5600    1.2874    5.1803 H   0  0  0  0  0  0  0  0  0  0  0  0
    0.9927    2.2786    3.2676 H   0  0  0  0  0  0  0  0  0  0  0  0
    1.2865    1.8776    0.8638 H   0  0  0  0  0  0  0  0  0  0  0  0
   -1.5237   -1.5082   -0.6211 H   0  0  0  0  0  0  0  0  0  0  0  0
   -1.3633   -2.0049   -3.0180 H   0  0  0  0  0  0  0  0  0  0  0  0
   -0.2811   -1.9490   -6.2237 H   0  0  0  0  0  0  0  0  0  0  0  0
    1.9427    0.7057   -3.3345 H   0  0  0  0  0  0  0  0  0  0  0  0
    1.7744    1.1924   -0.9683 H   0  0  0  0  0  0  0  0  0  0  0  0
   -1.6529   -1.0666    3.3718 H   0  0  0  0  0  0  0  0  0  0  0  0
  1  2  1  0
  2  3  2  0
  3  4  1  0
  4  5  2  0
  5  6  1  0
  6  7  2  0
  7  8  1  0
  8  9  2  0
  9 10  1  0
 10 11  2  0
 10 12  1  0
  9 13  1  0
 13 14  2  0
  5 15  1  0
 15 16  2  0
 16  2  1  0
 14  6  1  0
  1 17  1  0
  1 18  1  0
  1 19  1  0
  3 20  1  0
  4 21  1  0
  7 22  1  0
  8 23  1  0
 12 24  1  0
 13 25  1  0
 14 26  1  0
 16 27  1  0
M  END
$$$$

     RDKit          3D

 27 28  0  0  0  0  0  0  0  0999 V2000
    3.1418    4.0102   -0.3142 C   0  0  0  0  0  0  0  0  0  0  0  0
    2.1937    2.8610   -0.2891 C   0  0  0  0  0  0  0  0  0  0  0  0
    1.2094    2.6685   -1.2606 C   0  0  0  0  0  0  0  0  0  0  0  0
    0.3595    1.5887   -1.1752 C   0  0  0  0  0  0  0  0  0  0  0  0
    0.4843    0.6985   -0.1134 C   0  0  0  0  0  0  0  0  0  0  0  0
   -0.4112   -0.4739    0.0401 C   0  0  0  0  0  0  0  0  0  0  0  0
   -0.0418   -1.5251    0.8859 C   0  0  0  0  0  0  0  0  0  0  0  0
   -0.8453   -2.6315    1.0369 C   0  0  0  0  0  0  0  0  0  0  0  0
   -2.0562   -2.7276    0.3503 C   0  0  0  0  0  0  0  0  0  0  0  0
   -2.9458   -3.9009    0.4796 C   0  0  0  0  0  0  0  0  0  0  0  0
   -3.9964   -4.0168   -0.1173 O   0  0  0  0  0  0  0  0  0  0  0  0
   -2.4976   -4.8363    1.3208 O   0  0  0  0  0  0  0  0  0  0  0  0
   -2.4335   -1.6785   -0.4851 C   0  0  0  0  0  0  0  0  0  0  0  0
   -1.6339   -0.5705   -0.6347 C   0  0  0  0  0  0  0  0  0  0  0  0
    1.4308    0.8616    0.8181 N   0  0  0  0  0  0  0  0  0  0  0  0
    2.2472    1.9018    0.7307 C   0  0  0  0  0  0  0  0  0  0  0  0
    3.0311    4.6288    0.5718 H   0  0  0  0  0  0  0  0  0  0  0  0
    4.1704    3.6632   -0.3307 H   0  0  0  0  0  0  0  0  0  0  0  0
    2.9883    4.6416   -1.1870 H   0  0  0  0  0  0  0  0  0  0  0  0
    1.1181    3.3624   -2.0742 H   0  0  0  0  0  0  0  0  0  0  0  0
   -0.3873    1.4283   -1.9346 H   0  0  0  0  0  0  0  0  0  0  0  0
    0.8921   -1.4556    1.4234 H   0  0  0  0  0  0  0  0  0  0  0  0
   -0.5325   -3.4356    1.6967 H   0  0  0  0  0  0  0  0  0  0  0  0
   -3.1423   -5.5573    1.3509 H   0  0  0  0  0  0  0  0  0  0  0  0
   -3.3710   -1.7314   -1.0247 H   0  0  0  0  0  0  0  0  0  0  0  0
   -1.9643    0.2337   -1.2705 H   0  0  0  0  0  0  0  0  0  0  0  0
    2.9925    1.9927    1.5062 H   0  0  0  0  0  0  0  0  0  0  0  0
  1  2  1  0
  2  3  2  0
  3  4  1  0
  4  5  2  0
  5  6  1  0
  6  7  2  0
  7  8  1  0
  8  9  2  0
  9 10  1  0
 10 11  2  0
 10 12  1  0
  9 13  1  0
 13 14  2  0
  5 15  1  0
 15 16  2  0
 16  2  1  0
 14  6  1  0
  1 17  1  0
  1 18  1  0
  1 19  1  0
  3 20  1  0
  4 21  1  0
  7 22  1  0
  8 23  1  0
 12 24  1  0
 13 25  1  0
 14 26  1  0
 16 27  1  0
M  END
$$$$

     RDKit          3D

 27 28  0  0  0  0  0  0  0  0999 V2000
    0.3752   -4.0782    3.0438 C   0  0  0  0  0  0  0  0  0  0  0  0
    0.2387   -2.8533    2.2077 C   0  0  0  0  0  0  0  0  0  0  0  0
   -0.3044   -1.6617    2.6909 C   0  0  0  0  0  0  0  0  0  0  0  0
   -0.3918   -0.5617    1.8670 C   0  0  0  0  0  0  0  0  0  0  0  0
    0.0612   -0.6507    0.5562 C   0  0  0  0  0  0  0  0  0  0  0  0
   -0.0133    0.5078   -0.3666 C   0  0  0  0  0  0  0  0  0  0  0  0
   -0.1158    0.2995   -1.7441 C   0  0  0  0  0  0  0  0  0  0  0  0
   -0.1954    1.3609   -2.6179 C   0  0  0  0  0  0  0  0  0  0  0  0
   -0.1664    2.6734   -2.1437 C   0  0  0  0  0  0  0  0  0  0  0  0
   -0.2459    3.8412   -3.0451 C   0  0  0  0  0  0  0  0  0  0  0  0
   -0.2284    4.9913   -2.6573 O   0  0  0  0  0  0  0  0  0  0  0  0
   -0.3489    3.5276   -4.3375 O   0  0  0  0  0  0  0  0  0  0  0  0
   -0.0566    2.8845   -0.7702 C   0  0  0  0  0  0  0  0  0  0  0  0
    0.0197    1.8259    0.1040 C   0  0  0  0  0  0  0  0  0  0  0  0
    0.5715   -1.7856    0.0716 N   0  0  0  0  0  0  0  0  0  0  0  0
    0.6616   -2.8410    0.8710 C   0  0  0  0  0  0  0  0  0  0  0  0
   -0.0316   -3.9310    4.0422 H   0  0  0  0  0  0  0  0  0  0  0  0
    1.4183   -4.3659    3.1387 H   0  0  0  0  0  0  0  0  0  0  0  0
   -0.1469   -4.9192    2.5927 H   0  0  0  0  0  0  0  0  0  0  0  0
   -0.6556   -1.6051    3.7028 H   0  0  0  0  0  0  0  0  0  0  0  0
   -0.8184    0.3619    2.2277 H   0  0  0  0  0  0  0  0  0  0  0  0
   -0.1338   -0.7155   -2.1182 H   0  0  0  0  0  0  0  0  0  0  0  0
   -0.2801    1.1716   -3.6836 H   0  0  0  0  0  0  0  0  0  0  0  0
   -0.3931    4.3437   -4.8526 H   0  0  0  0  0  0  0  0  0  0  0  0
   -0.0311    3.8966   -0.3826 H   0  0  0  0  0  0  0  0  0  0  0  0
    0.1202    2.0164    1.1614 H   0  0  0  0  0  0  0  0  0  0  0  0
    1.0909   -3.7331    0.4417 H   0  0  0  0  0  0  0  0  0  0  0  0
  1  2  1  0
  2  3  2  0
  3  4  1  0
  4  5  2  0
  5  6  1  0
  6  7  2  0
  7  8  1  0
  8  9  2  0
  9 10  1  0
 10 11  2  0
 10 12  1  0
  9 13  1  0
 13 14  2  0
  5 15  1  0
 15 16  2  0
 16  2  1  0
 14  6  1  0
  1 17  1  0
  1 18  1  0
  1 19  1  0
  3 20  1  0
  4 21  1  0
  7 22  1  0
  8 23  1  0
 12 24  1  0
 13 25  1  0
 14 26  1  0
 16 27  1  0
M  END
$$$$

     RDKit          3D

 27 28  0  0  0  0  0  0  0  0999 V2000
    1.1406   -3.2256   -3.7872 C   0  0  0  0  0  0  0  0  0  0  0  0
    0.7666   -2.2674   -2.7092 C   0  0  0  0  0  0  0  0  0  0  0  0
   -0.5026   -1.6825   -2.6414 C   0  0  0  0  0  0  0  0  0  0  0  0
   -0.8063   -0.8131   -1.6198 C   0  0  0  0  0  0  0  0  0  0  0  0
    0.1592   -0.5190   -0.6628 C   0  0  0  0  0  0  0  0  0  0  0  0
   -0.1176    0.4222    0.4476 C   0  0  0  0  0  0  0  0  0  0  0  0
    0.5505    0.2813    1.6653 C   0  0  0  0  0  0  0  0  0  0  0  0
    0.2979    1.1366    2.7142 C   0  0  0  0  0  0  0  0  0  0  0  0
   -0.6305    2.1718    2.5796 C   0  0  0  0  0  0  0  0  0  0  0  0
   -0.9371    3.1086    3.6800 C   0  0  0  0  0  0  0  0  0  0  0  0
   -1.7181    4.0338    3.5766 O   0  0  0  0  0  0  0  0  0  0  0  0
   -0.2726    2.8545    4.8095 O   0  0  0  0  0  0  0  0  0  0  0  0
   -1.2879    2.3251    1.3604 C   0  0  0  0  0  0  0  0  0  0  0  0
   -1.0360    1.4712    0.3126 C   0  0  0  0  0  0  0  0  0  0  0  0
    1.3697   -1.0794   -0.7002 N   0  0  0  0  0  0  0  0  0  0  0  0
    1.6601   -1.9179   -1.6890 C   0  0  0  0  0  0  0  0  0  0  0  0
    2.2191   -3.2886   -3.9151 H   0  0  0  0  0  0  0  0  0  0  0  0
    0.7711   -4.2183   -3.5595 H   0  0  0  0  0  0  0  0  0  0  0  0
    0.7015   -2.9398   -4.7393 H   0  0  0  0  0  0  0  0  0  0  0  0
   -1.2373   -1.9146   -3.3909 H   0  0  0  0  0  0  0  0  0  0  0  0
   -1.7877   -0.3683   -1.5475 H   0  0  0  0  0  0  0  0  0  0  0  0
    1.2807   -0.5106    1.7722 H   0  0  0  0  0  0  0  0  0  0  0  0
    0.8297    1.0039    3.6508 H   0  0  0  0  0  0  0  0  0  0  0  0
   -0.5206    3.5199    5.4676 H   0  0  0  0  0  0  0  0  0  0  0  0
   -2.0067    3.1281    1.2367 H   0  0  0  0  0  0  0  0  0  0  0  0
   -1.5414    1.6207   -0.6277 H   0  0  0  0  0  0  0  0  0  0  0  0
    2.6555   -2.3327   -1.6835 H   0  0  0  0  0  0  0  0  0  0  0  0
  1  2  1  0
  2  3  2  0
  3  4  1  0
  4  5  2  0
  5  6  1  0
  6  7  2  0
  7  8  1  0
  8  9  2  0
  9 10  1  0
 10 11  2  0
 10 12  1  0
  9 13  1  0
 13 14  2  0
  5 15  1  0
 15 16  2  0
 16  2  1  0
 14  6  1  0
  1 17  1  0
  1 18  1  0
  1 19  1  0
  3 20  1  0
  4 21  1  0
  7 22  1  0
  8 23  1  0
 12 24  1  0
 13 25  1  0
 14 26  1  0
 16 27  1  0
M  END
$$$$

     RDKit          3D

 27 28  0  0  0  0  0  0  0  0999 V2000
   -3.9853    2.6944    1.7296 C   0  0  0  0  0  0  0  0  0  0  0  0
   -2.7908    1.9502    1.2432 C   0  0  0  0  0  0  0  0  0  0  0  0
   -1.4945    2.2487    1.6624 C   0  0  0  0  0  0  0  0  0  0  0  0
   -0.4307    1.5174    1.1819 C   0  0  0  0  0  0  0  0  0  0  0  0
   -0.6559    0.4781    0.2828 C   0  0  0  0  0  0  0  0  0  0  0  0
    0.4459   -0.3542   -0.2652 C   0  0  0  0  0  0  0  0  0  0  0  0
    0.1760   -1.3035   -1.2576 C   0  0  0  0  0  0  0  0  0  0  0  0
    1.1759   -2.0942   -1.7699 C   0  0  0  0  0  0  0  0  0  0  0  0
    2.4912   -1.9708   -1.3151 C   0  0  0  0  0  0  0  0  0  0  0  0
    3.5385   -2.8454   -1.8813 C   0  0  0  0  0  0  0  0  0  0  0  0
    3.3239   -3.6962   -2.7176 O   0  0  0  0  0  0  0  0  0  0  0  0
    4.7592   -2.6218   -1.3883 O   0  0  0  0  0  0  0  0  0  0  0  0
    2.7690   -1.0258   -0.3324 C   0  0  0  0  0  0  0  0  0  0  0  0
    1.7672   -0.2325    0.1824 C   0  0  0  0  0  0  0  0  0  0  0  0
   -1.8956    0.1837   -0.1324 N   0  0  0  0  0  0  0  0  0  0  0  0
   -2.9132    0.8924    0.3342 C   0  0  0  0  0  0  0  0  0  0  0  0
   -4.6299    2.0474    2.3140 H   0  0  0  0  0  0  0  0  0  0  0  0
   -3.7063    3.5406    2.3512 H   0  0  0  0  0  0  0  0  0  0  0  0
   -4.5800    3.0691    0.9006 H   0  0  0  0  0  0  0  0  0  0  0  0
   -1.3251    3.0486    2.3553 H   0  0  0  0  0  0  0  0  0  0  0  0
    0.5679    1.7530    1.5093 H   0  0  0  0  0  0  0  0  0  0  0  0
   -0.8335   -1.4075   -1.6178 H   0  0  0  0  0  0  0  0  0  0  0  0
    0.9489   -2.8258   -2.5349 H   0  0  0  0  0  0  0  0  0  0  0  0
    5.3744   -3.2502   -1.7885 H   0  0  0  0  0  0  0  0  0  0  0  0
    3.7786   -0.9053    0.0432 H   0  0  0  0  0  0  0  0  0  0  0  0
    2.0162    0.4921    0.9391 H   0  0  0  0  0  0  0  0  0  0  0  0
   -3.8921    0.6174   -0.0281 H   0  0  0  0  0  0  0  0  0  0  0  0
  1  2  1  0
  2  3  2  0
  3  4  1  0
  4  5  2  0
  5  6  1  0
  6  7  2  0
  7  8  1  0
  8  9  2  0
  9 10  1  0
 10 11  2  0
 10 12  1  0
  9 13  1  0
 13 14  2  0
  5 15  1  0
 15 16  2  0
 16  2  1  0
 14  6  1  0
  1 17  1  0
  1 18  1  0
  1 19  1  0
  3 20  1  0
  4 21  1  0
  7 22  1  0
  8 23  1  0
 12 24  1  0
 13 25  1  0
 14 26  1  0
 16 27  1  0
M  END
$$$$

     RDKit          3D

 27 28  0  0  0  0  0  0  0  0999 V2000
   -5.0925    0.1857    0.2827 C   0  0  0  0  0  0  0  0  0  0  0  0
   -3.6031    0.1797    0.2250 C   0  0  0  0  0  0  0  0  0  0  0  0
   -2.8257    0.9701    1.0779 C   0  0  0  0  0  0  0  0  0  0  0  0
   -1.4537    0.9218    0.9956 C   0  0  0  0  0  0  0  0  0  0  0  0
   -0.8503    0.0824    0.0629 C   0  0  0  0  0  0  0  0  0  0  0  0
    0.6241    0.0021   -0.0693 C   0  0  0  0  0  0  0  0  0  0  0  0
    1.2145   -1.1437   -0.6064 C   0  0  0  0  0  0  0  0  0  0  0  0
    2.5830   -1.2477   -0.7199 C   0  0  0  0  0  0  0  0  0  0  0  0
    3.4116   -0.2045   -0.3011 C   0  0  0  0  0  0  0  0  0  0  0  0
    4.8854   -0.2833   -0.3868 C   0  0  0  0  0  0  0  0  0  0  0  0
    5.6272    0.6030   -0.0172 O   0  0  0  0  0  0  0  0  0  0  0  0
    5.3407   -1.4262   -0.9069 O   0  0  0  0  0  0  0  0  0  0  0  0
    2.8250    0.9477    0.2188 C   0  0  0  0  0  0  0  0  0  0  0  0
    1.4592    1.0534    0.3296 C   0  0  0  0  0  0  0  0  0  0  0  0
   -1.5744   -0.6901   -0.7491 N   0  0  0  0  0  0  0  0  0  0  0  0
   -2.9013   -0.6355   -0.6707 C   0  0  0  0  0  0  0  0  0  0  0  0
   -5.5341   -0.1522   -0.6531 H   0  0  0  0  0  0  0  0  0  0  0  0
   -5.4729    1.1815    0.4989 H   0  0  0  0  0  0  0  0  0  0  0  0
   -5.4454   -0.4627    1.0756 H   0  0  0  0  0  0  0  0  0  0  0  0
   -3.3081    1.6136    1.7929 H   0  0  0  0  0  0  0  0  0  0  0  0
   -0.8444    1.5179    1.6542 H   0  0  0  0  0  0  0  0  0  0  0  0
    0.5765   -1.9540   -0.9363 H   0  0  0  0  0  0  0  0  0  0  0  0
    3.0174   -2.1472   -1.1428 H   0  0  0  0  0  0  0  0  0  0  0  0
    6.3109   -1.3812   -0.9422 H   0  0  0  0  0  0  0  0  0  0  0  0
    3.4492    1.7756    0.5340 H   0  0  0  0  0  0  0  0  0  0  0  0
    1.0240    1.9616    0.7102 H   0  0  0  0  0  0  0  0  0  0  0  0
   -3.4427   -1.2676   -1.3564 H   0  0  0  0  0  0  0  0  0  0  0  0
  1  2  1  0
  2  3  2  0
  3  4  1  0
  4  5  2  0
  5  6  1  0
  6  7  2  0
  7  8  1  0
  8  9  2  0
  9 10  1  0
 10 11  2  0
 10 12  1  0
  9 13  1  0
 13 14  2  0
  5 15  1  0
 15 16  2  0
 16  2  1  0
 14  6  1  0
  1 17  1  0
  1 18  1  0
  1 19  1  0
  3 20  1  0
  4 21  1  0
  7 22  1  0
  8 23  1  0
 12 24  1  0
 13 25  1  0
 14 26  1  0
 16 27  1  0
M  END
$$$$

     RDKit          3D

 27 28  0  0  0  0  0  0  0  0999 V2000
    1.1172    0.5047   -4.9600 C   0  0  0  0  0  0  0  0  0  0  0  0
    0.8169    0.3815   -3.5057 C   0  0  0  0  0  0  0  0  0  0  0  0
    1.1254    1.3892   -2.5904 C   0  0  0  0  0  0  0  0  0  0  0  0
    0.8241    1.2271   -1.2571 C   0  0  0  0  0  0  0  0  0  0  0  0
    0.1973    0.0598   -0.8341 C   0  0  0  0  0  0  0  0  0  0  0  0
   -0.1659   -0.1530    0.5876 C   0  0  0  0  0  0  0  0  0  0  0  0
   -0.3546   -1.4470    1.0827 C   0  0  0  0  0  0  0  0  0  0  0  0
   -0.6729   -1.6552    2.4040 C   0  0  0  0  0  0  0  0  0  0  0  0
   -0.8313   -0.5775    3.2799 C   0  0  0  0  0  0  0  0  0  0  0  0
   -1.1717   -0.8428    4.6923 C   0  0  0  0  0  0  0  0  0  0  0  0
   -1.3322   -1.9566    5.1463 O   0  0  0  0  0  0  0  0  0  0  0  0
   -1.2951    0.2581    5.4386 O   0  0  0  0  0  0  0  0  0  0  0  0
   -0.6650    0.7157    2.7869 C   0  0  0  0  0  0  0  0  0  0  0  0
   -0.3379    0.9246    1.4650 C   0  0  0  0  0  0  0  0  0  0  0  0
   -0.0936   -0.9216   -1.6927 N   0  0  0  0  0  0  0  0  0  0  0  0
    0.2056   -0.7627   -2.9761 C   0  0  0  0  0  0  0  0  0  0  0  0
    1.7434   -0.3150   -5.3039 H   0  0  0  0  0  0  0  0  0  0  0  0
    0.2047    0.4806   -5.5472 H   0  0  0  0  0  0  0  0  0  0  0  0
    1.6368    1.4340   -5.1846 H   0  0  0  0  0  0  0  0  0  0  0  0
    1.6034    2.2878   -2.9294 H   0  0  0  0  0  0  0  0  0  0  0  0
    1.0822    1.9937   -0.5426 H   0  0  0  0  0  0  0  0  0  0  0  0
   -0.2518   -2.2853    0.4101 H   0  0  0  0  0  0  0  0  0  0  0  0
   -0.8024   -2.6640    2.7775 H   0  0  0  0  0  0  0  0  0  0  0  0
   -1.5192   -0.0042    6.3410 H   0  0  0  0  0  0  0  0  0  0  0  0
   -0.7936    1.5749    3.4369 H   0  0  0  0  0  0  0  0  0  0  0  0
   -0.2246    1.9362    1.1054 H   0  0  0  0  0  0  0  0  0  0  0  0
   -0.0456   -1.5831   -3.6301 H   0  0  0  0  0  0  0  0  0  0  0  0
  1  2  1  0
  2  3  2  0
  3  4  1  0
  4  5  2  0
  5  6  1  0
  6  7  2  0
  7  8  1  0
  8  9  2  0
  9 10  1  0
 10 11  2  0
 10 12  1  0
  9 13  1  0
 13 14  2  0
  5 15  1  0
 15 16  2  0
 16  2  1  0
 14  6  1  0
  1 17  1  0
  1 18  1  0
  1 19  1  0
  3 20  1  0
  4 21  1  0
  7 22  1  0
  8 23  1  0
 12 24  1  0
 13 25  1  0
 14 26  1  0
 16 27  1  0
M  END
$$$$

     RDKit          3D

 27 28  0  0  0  0  0  0  0  0999 V2000
   -1.7475    2.3710   -4.1723 C   0  0  0  0  0  0  0  0  0  0  0  0
   -1.2551    1.6488   -2.9662 C   0  0  0  0  0  0  0  0  0  0  0  0
   -1.8299    0.4505   -2.5310 C   0  0  0  0  0  0  0  0  0  0  0  0
   -1.3363   -0.1810   -1.4129 C   0  0  0  0  0  0  0  0  0  0  0  0
   -0.2679    0.3837   -0.7210 C   0  0  0  0  0  0  0  0  0  0  0  0
    0.2850   -0.2430    0.5038 C   0  0  0  0  0  0  0  0  0  0  0  0
    1.5968    0.0311    0.8982 C   0  0  0  0  0  0  0  0  0  0  0  0
    2.1279   -0.5442    2.0277 C   0  0  0  0  0  0  0  0  0  0  0  0
    1.3639   -1.4056    2.8194 C   0  0  0  0  0  0  0  0  0  0  0  0
    1.9664   -1.9998    4.0288 C   0  0  0  0  0  0  0  0  0  0  0  0
    3.1149   -1.8062    4.3688 O   0  0  0  0  0  0  0  0  0  0  0  0
    1.1368   -2.7823    4.7252 O   0  0  0  0  0  0  0  0  0  0  0  0
    0.0520   -1.6755    2.4378 C   0  0  0  0  0  0  0  0  0  0  0  0
   -0.4787   -1.1040    1.3016 C   0  0  0  0  0  0  0  0  0  0  0  0
    0.3068    1.5163   -1.1349 N   0  0  0  0  0  0  0  0  0  0  0  0
   -0.1749    2.1227   -2.2130 C   0  0  0  0  0  0  0  0  0  0  0  0
   -1.4703    3.4243   -4.1515 H   0  0  0  0  0  0  0  0  0  0  0  0
   -2.8281    2.3067   -4.2547 H   0  0  0  0  0  0  0  0  0  0  0  0
   -1.3368    1.9360   -5.0747 H   0  0  0  0  0  0  0  0  0  0  0  0
   -2.6535    0.0250   -3.0775 H   0  0  0  0  0  0  0  0  0  0  0  0
   -1.7629   -1.1131   -1.0765 H   0  0  0  0  0  0  0  0  0  0  0  0
    2.1875    0.7090    0.3003 H   0  0  0  0  0  0  0  0  0  0  0  0
    3.1505   -0.3276    2.3147 H   0  0  0  0  0  0  0  0  0  0  0  0
    1.6102   -3.1310    5.4907 H   0  0  0  0  0  0  0  0  0  0  0  0
   -0.5673   -2.3384    3.0329 H   0  0  0  0  0  0  0  0  0  0  0  0
   -1.5033   -1.3139    1.0367 H   0  0  0  0  0  0  0  0  0  0  0  0
    0.3138    3.0405   -2.5005 H   0  0  0  0  0  0  0  0  0  0  0  0
  1  2  1  0
  2  3  2  0
  3  4  1  0
  4  5  2  0
  5  6  1  0
  6  7  2  0
  7  8  1  0
  8  9  2  0
  9 10  1  0
 10 11  2  0
 10 12  1  0
  9 13  1  0
 13 14  2  0
  5 15  1  0
 15 16  2  0
 16  2  1  0
 14  6  1  0
  1 17  1  0
  1 18  1  0
  1 19  1  0
  3 20  1  0
  4 21  1  0
  7 22  1  0
  8 23  1  0
 12 24  1  0
 13 25  1  0
 14 26  1  0
 16 27  1  0
M  END
$$$$

     RDKit          3D

 27 28  0  0  0  0  0  0  0  0999 V2000
    1.2356    4.0543    2.8493 C   0  0  0  0  0  0  0  0  0  0  0  0
    0.9039    2.8597    2.0251 C   0  0  0  0  0  0  0  0  0  0  0  0
    1.3530    1.5795    2.3678 C   0  0  0  0  0  0  0  0  0  0  0  0
    1.0156    0.5010    1.5837 C   0  0  0  0  0  0  0  0  0  0  0  0
    0.2163    0.6935    0.4594 C   0  0  0  0  0  0  0  0  0  0  0  0
   -0.1900   -0.4364   -0.4110 C   0  0  0  0  0  0  0  0  0  0  0  0
   -0.5411   -0.2093   -1.7446 C   0  0  0  0  0  0  0  0  0  0  0  0
   -0.9050   -1.2506   -2.5651 C   0  0  0  0  0  0  0  0  0  0  0  0
   -0.9459   -2.5608   -2.0820 C   0  0  0  0  0  0  0  0  0  0  0  0
   -1.3396   -3.6525   -2.9950 C   0  0  0  0  0  0  0  0  0  0  0  0
   -1.6479   -3.4806   -4.1547 O   0  0  0  0  0  0  0  0  0  0  0  0
   -1.3304   -4.8628   -2.4314 O   0  0  0  0  0  0  0  0  0  0  0  0
   -0.6126   -2.7923   -0.7481 C   0  0  0  0  0  0  0  0  0  0  0  0
   -0.2418   -1.7484    0.0724 C   0  0  0  0  0  0  0  0  0  0  0  0
   -0.2115    1.9092    0.1106 N   0  0  0  0  0  0  0  0  0  0  0  0
    0.1180    2.9468    0.8703 C   0  0  0  0  0  0  0  0  0  0  0  0
    2.3037    4.1077    3.0405 H   0  0  0  0  0  0  0  0  0  0  0  0
    0.7487    4.0049    3.8146 H   0  0  0  0  0  0  0  0  0  0  0  0
    0.9319    4.9809    2.3633 H   0  0  0  0  0  0  0  0  0  0  0  0
    1.9638    1.4483    3.2431 H   0  0  0  0  0  0  0  0  0  0  0  0
    1.3755   -0.4872    1.8299 H   0  0  0  0  0  0  0  0  0  0  0  0
   -0.5279    0.8026   -2.1216 H   0  0  0  0  0  0  0  0  0  0  0  0
   -1.1661   -1.0597   -3.5996 H   0  0  0  0  0  0  0  0  0  0  0  0
   -1.6057   -5.5122   -3.0942 H   0  0  0  0  0  0  0  0  0  0  0  0
   -0.6432   -3.7960   -0.3395 H   0  0  0  0  0  0  0  0  0  0  0  0
   -0.0002   -1.9456    1.1050 H   0  0  0  0  0  0  0  0  0  0  0  0
   -0.2574    3.9059    0.5518 H   0  0  0  0  0  0  0  0  0  0  0  0
  1  2  1  0
  2  3  2  0
  3  4  1  0
  4  5  2  0
  5  6  1  0
  6  7  2  0
  7  8  1  0
  8  9  2  0
  9 10  1  0
 10 11  2  0
 10 12  1  0
  9 13  1  0
 13 14  2  0
  5 15  1  0
 15 16  2  0
 16  2  1  0
 14  6  1  0
  1 17  1  0
  1 18  1  0
  1 19  1  0
  3 20  1  0
  4 21  1  0
  7 22  1  0
  8 23  1  0
 12 24  1  0
 13 25  1  0
 14 26  1  0
 16 27  1  0
M  END
$$$$

     RDKit          3D

 27 28  0  0  0  0  0  0  0  0999 V2000
    0.7438   -4.6550    1.9800 C   0  0  0  0  0  0  0  0  0  0  0  0
    0.4965   -3.3117    1.3867 C   0  0  0  0  0  0  0  0  0  0  0  0
   -0.7840   -2.8998    1.0037 C   0  0  0  0  0  0  0  0  0  0  0  0
   -0.9718   -1.6476    0.4671 C   0  0  0  0  0  0  0  0  0  0  0  0
    0.1172   -0.7923    0.3114 C   0  0  0  0  0  0  0  0  0  0  0  0
   -0.0194    0.5773   -0.2487 C   0  0  0  0  0  0  0  0  0  0  0  0
    1.1213    1.3599   -0.4632 C   0  0  0  0  0  0  0  0  0  0  0  0
    1.0219    2.6289   -0.9772 C   0  0  0  0  0  0  0  0  0  0  0  0
   -0.2229    3.1781   -1.2944 C   0  0  0  0  0  0  0  0  0  0  0  0
   -0.2871    4.5497   -1.8359 C   0  0  0  0  0  0  0  0  0  0  0  0
    0.6864    5.2486   -2.0171 O   0  0  0  0  0  0  0  0  0  0  0  0
   -1.5265    4.9664   -2.1143 O   0  0  0  0  0  0  0  0  0  0  0  0
   -1.3628    2.4074   -1.0834 C   0  0  0  0  0  0  0  0  0  0  0  0
   -1.2636    1.1322   -0.5716 C   0  0  0  0  0  0  0  0  0  0  0  0
    1.3498   -1.1762    0.6644 N   0  0  0  0  0  0  0  0  0  0  0  0
    1.5243   -2.3861    1.1818 C   0  0  0  0  0  0  0  0  0  0  0  0
    1.7880   -4.7910    2.2559 H   0  0  0  0  0  0  0  0  0  0  0  0
    0.1361   -4.8036    2.8647 H   0  0  0  0  0  0  0  0  0  0  0  0
    0.4759   -5.4427    1.2837 H   0  0  0  0  0  0  0  0  0  0  0  0
   -1.6162   -3.5660    1.1298 H   0  0  0  0  0  0  0  0  0  0  0  0
   -1.9609   -1.3367    0.1751 H   0  0  0  0  0  0  0  0  0  0  0  0
    2.0871    0.9538   -0.2147 H   0  0  0  0  0  0  0  0  0  0  0  0
    1.9164    3.2157   -1.1443 H   0  0  0  0  0  0  0  0  0  0  0  0
   -1.4724    5.8705   -2.4557 H   0  0  0  0  0  0  0  0  0  0  0  0
   -2.3452    2.8001   -1.3186 H   0  0  0  0  0  0  0  0  0  0  0  0
   -2.1661    0.5616   -0.4217 H   0  0  0  0  0  0  0  0  0  0  0  0
    2.5342   -2.6415    1.4565 H   0  0  0  0  0  0  0  0  0  0  0  0
  1  2  1  0
  2  3  2  0
  3  4  1  0
  4  5  2  0
  5  6  1  0
  6  7  2  0
  7  8  1  0
  8  9  2  0
  9 10  1  0
 10 11  2  0
 10 12  1  0
  9 13  1  0
 13 14  2  0
  5 15  1  0
 15 16  2  0
 16  2  1  0
 14  6  1  0
  1 17  1  0
  1 18  1  0
  1 19  1  0
  3 20  1  0
  4 21  1  0
  7 22  1  0
  8 23  1  0
 12 24  1  0
 13 25  1  0
 14 26  1  0
 16 27  1  0
M  END
$$$$

     RDKit          3D

 27 28  0  0  0  0  0  0  0  0999 V2000
    4.4253    1.9764    1.5872 C   0  0  0  0  0  0  0  0  0  0  0  0
    3.1020    1.4404    1.1616 C   0  0  0  0  0  0  0  0  0  0  0  0
    1.8932    2.0568    1.4965 C   0  0  0  0  0  0  0  0  0  0  0  0
    0.7036    1.5106    1.0714 C   0  0  0  0  0  0  0  0  0  0  0  0
    0.7202    0.3502    0.3062 C   0  0  0  0  0  0  0  0  0  0  0  0
   -0.5373   -0.2711   -0.1700 C   0  0  0  0  0  0  0  0  0  0  0  0
   -0.5639   -0.9613   -1.3833 C   0  0  0  0  0  0  0  0  0  0  0  0
   -1.7264   -1.5374   -1.8457 C   0  0  0  0  0  0  0  0  0  0  0  0
   -2.9043   -1.4513   -1.1014 C   0  0  0  0  0  0  0  0  0  0  0  0
   -4.1724   -2.0565   -1.5608 C   0  0  0  0  0  0  0  0  0  0  0  0
   -5.2074   -2.0074   -0.9280 O   0  0  0  0  0  0  0  0  0  0  0  0
   -4.0864   -2.6750   -2.7419 O   0  0  0  0  0  0  0  0  0  0  0  0
   -2.8785   -0.7685    0.1148 C   0  0  0  0  0  0  0  0  0  0  0  0
   -1.7196   -0.1858    0.5722 C   0  0  0  0  0  0  0  0  0  0  0  0
    1.8645   -0.2452   -0.0366 N   0  0  0  0  0  0  0  0  0  0  0  0
    3.0102    0.2796    0.3807 C   0  0  0  0  0  0  0  0  0  0  0  0
    4.3225    2.7342    2.3623 H   0  0  0  0  0  0  0  0  0  0  0  0
    5.0632    1.1845    1.9701 H   0  0  0  0  0  0  0  0  0  0  0  0
    4.9431    2.4302    0.7491 H   0  0  0  0  0  0  0  0  0  0  0  0
    1.8988    2.9581    2.0820 H   0  0  0  0  0  0  0  0  0  0  0  0
   -0.2384    1.9794    1.3167 H   0  0  0  0  0  0  0  0  0  0  0  0
    0.3481   -1.0349   -1.9595 H   0  0  0  0  0  0  0  0  0  0  0  0
   -1.7215   -2.0603   -2.7972 H   0  0  0  0  0  0  0  0  0  0  0  0
   -4.9530   -3.0439   -2.9646 H   0  0  0  0  0  0  0  0  0  0  0  0
   -3.7801   -0.6935    0.7106 H   0  0  0  0  0  0  0  0  0  0  0  0
   -1.7169    0.3295    1.5202 H   0  0  0  0  0  0  0  0  0  0  0  0
    3.9114   -0.2380    0.0875 H   0  0  0  0  0  0  0  0  0  0  0  0
  1  2  1  0
  2  3  2  0
  3  4  1  0
  4  5  2  0
  5  6  1  0
  6  7  2  0
  7  8  1  0
  8  9  2  0
  9 10  1  0
 10 11  2  0
 10 12  1  0
  9 13  1  0
 13 14  2  0
  5 15  1  0
 15 16  2  0
 16  2  1  0
 14  6  1  0
  1 17  1  0
  1 18  1  0
  1 19  1  0
  3 20  1  0
  4 21  1  0
  7 22  1  0
  8 23  1  0
 12 24  1  0
 13 25  1  0
 14 26  1  0
 16 27  1  0
M  END
$$$$

     RDKit          3D

 27 28  0  0  0  0  0  0  0  0999 V2000
    2.1844   -2.3219   -3.9908 C   0  0  0  0  0  0  0  0  0  0  0  0
    1.5645   -1.6215   -2.8306 C   0  0  0  0  0  0  0  0  0  0  0  0
    1.5003   -0.2258   -2.7569 C   0  0  0  0  0  0  0  0  0  0  0  0
    0.9074    0.3776   -1.6725 C   0  0  0  0  0  0  0  0  0  0  0  0
    0.3691   -0.4093   -0.6591 C   0  0  0  0  0  0  0  0  0  0  0  0
   -0.2819    0.1974    0.5255 C   0  0  0  0  0  0  0  0  0  0  0  0
   -1.2788   -0.4998    1.2103 C   0  0  0  0  0  0  0  0  0  0  0  0
   -1.9070    0.0572    2.2985 C   0  0  0  0  0  0  0  0  0  0  0  0
   -1.5550    1.3307    2.7540 C   0  0  0  0  0  0  0  0  0  0  0  0
   -2.2629    1.8946    3.9210 C   0  0  0  0  0  0  0  0  0  0  0  0
   -3.1456    1.3119    4.5165 O   0  0  0  0  0  0  0  0  0  0  0  0
   -1.8456    3.1141    4.2762 O   0  0  0  0  0  0  0  0  0  0  0  0
   -0.5469    2.0248    2.0856 C   0  0  0  0  0  0  0  0  0  0  0  0
    0.0796    1.4674    0.9912 C   0  0  0  0  0  0  0  0  0  0  0  0
    0.4064   -1.7422   -0.7184 N   0  0  0  0  0  0  0  0  0  0  0  0
    0.9892   -2.3205   -1.7633 C   0  0  0  0  0  0  0  0  0  0  0  0
    2.4637   -3.3458   -3.7438 H   0  0  0  0  0  0  0  0  0  0  0  0
    3.0734   -1.8023   -4.3320 H   0  0  0  0  0  0  0  0  0  0  0  0
    1.4964   -2.3527   -4.8280 H   0  0  0  0  0  0  0  0  0  0  0  0
    1.9122    0.3688   -3.5529 H   0  0  0  0  0  0  0  0  0  0  0  0
    0.8415    1.4540   -1.6087 H   0  0  0  0  0  0  0  0  0  0  0  0
   -1.5495   -1.4881    0.8677 H   0  0  0  0  0  0  0  0  0  0  0  0
   -2.6847   -0.4935    2.8130 H   0  0  0  0  0  0  0  0  0  0  0  0
   -2.3691    3.4005    5.0415 H   0  0  0  0  0  0  0  0  0  0  0  0
   -0.2420    3.0104    2.4202 H   0  0  0  0  0  0  0  0  0  0  0  0
    0.8713    2.0135    0.4975 H   0  0  0  0  0  0  0  0  0  0  0  0
    1.0095   -3.3994   -1.7618 H   0  0  0  0  0  0  0  0  0  0  0  0
  1  2  1  0
  2  3  2  0
  3  4  1  0
  4  5  2  0
  5  6  1  0
  6  7  2  0
  7  8  1  0
  8  9  2  0
  9 10  1  0
 10 11  2  0
 10 12  1  0
  9 13  1  0
 13 14  2  0
  5 15  1  0
 15 16  2  0
 16  2  1  0
 14  6  1  0
  1 17  1  0
  1 18  1  0
  1 19  1  0
  3 20  1  0
  4 21  1  0
  7 22  1  0
  8 23  1  0
 12 24  1  0
 13 25  1  0
 14 26  1  0
 16 27  1  0
M  END
$$$$
