
     RDKit          3D

 24 25  0  0  0  0  0  0  0  0999 V2000
   -3.7866    1.7359   -1.3620 C   0  0  0  0  0  0  0  0  0  0  0  0
   -2.4726    1.1973   -0.9063 C   0  0  0  0  0  0  0  0  0  0  0  0
   -1.5707    1.9450   -0.1423 C   0  0  0  0  0  0  0  0  0  0  0  0
   -0.3820    1.3873    0.2772 C   0  0  0  0  0  0  0  0  0  0  0  0
   -0.0997    0.0570   -0.0585 C   0  0  0  0  0  0  0  0  0  0  0  0
    1.1538   -0.6236    0.3766 C   0  0  0  0  0  0  0  0  0  0  0  0
    1.7771   -1.5571   -0.4604 C   0  0  0  0  0  0  0  0  0  0  0  0
    2.9456   -2.2106   -0.0851 C   0  0  0  0  0  0  0  0  0  0  0  0
    3.4867   -1.9220    1.1562 C   0  0  0  0  0  0  0  0  0  0  0  0
    4.6126   -2.5593    1.5348 F   0  0  0  0  0  0  0  0  0  0  0  0
    2.9204   -1.0194    2.0298 C   0  0  0  0  0  0  0  0  0  0  0  0
    1.7662   -0.3991    1.6125 C   0  0  0  0  0  0  0  0  0  0  0  0
    1.1787    0.4663    2.4926 F   0  0  0  0  0  0  0  0  0  0  0  0
   -0.9461   -0.6636   -0.8070 N   0  0  0  0  0  0  0  0  0  0  0  0
   -2.0794   -0.1177   -1.2100 C   0  0  0  0  0  0  0  0  0  0  0  0
   -3.8367    2.8173   -1.2258 H   0  0  0  0  0  0  0  0  0  0  0  0
   -4.6011    1.2858   -0.8000 H   0  0  0  0  0  0  0  0  0  0  0  0
   -3.9583    1.5107   -2.4160 H   0  0  0  0  0  0  0  0  0  0  0  0
   -1.8108    2.9663    0.1105 H   0  0  0  0  0  0  0  0  0  0  0  0
    0.3362    1.9570    0.8537 H   0  0  0  0  0  0  0  0  0  0  0  0
    1.3250   -1.7737   -1.4161 H   0  0  0  0  0  0  0  0  0  0  0  0
    3.4253   -2.9261   -0.7420 H   0  0  0  0  0  0  0  0  0  0  0  0
    3.3470   -0.8104    3.0011 H   0  0  0  0  0  0  0  0  0  0  0  0
   -2.7306   -0.7432   -1.8135 H   0  0  0  0  0  0  0  0  0  0  0  0
  1  2  1  0
  2  3  2  0
  3  4  1  0
  4  5  2  0
  5  6  1  0
  6  7  2  0
  7  8  1  0
  8  9  2  0
  9 10  1  0
  9 11  1  0
 11 12  2  0
 12 13  1  0
  5 14  1  0
 14 15  2  0
 15  2  1  0
 12  6  1  0
  1 16  1  0
  1 17  1  0
  1 18  1  0
  3 19  1  0
  4 20  1  0
  7 21  1  0
  8 22  1  0
 11 23  1  0
 15 24  1  0
M  END
$$$$

     RDKit          3D

 24 25  0  0  0  0  0  0  0  0999 V2000
   -1.4651   -1.7992    3.7198 C   0  0  0  0  0  0  0  0  0  0  0  0
   -0.9462   -1.1597    2.4767 C   0  0  0  0  0  0  0  0  0  0  0  0
    0.1828   -0.3346    2.4627 C   0  0  0  0  0  0  0  0  0  0  0  0
    0.6263    0.2211    1.2828 C   0  0  0  0  0  0  0  0  0  0  0  0
   -0.0613   -0.0601    0.0972 C   0  0  0  0  0  0  0  0  0  0  0  0
    0.3706    0.5069   -1.2116 C   0  0  0  0  0  0  0  0  0  0  0  0
   -0.5720    0.9948   -2.1213 C   0  0  0  0  0  0  0  0  0  0  0  0
   -0.1939    1.5389   -3.3439 C   0  0  0  0  0  0  0  0  0  0  0  0
    1.1555    1.5891   -3.6513 C   0  0  0  0  0  0  0  0  0  0  0  0
    1.5335    2.1203   -4.8325 F   0  0  0  0  0  0  0  0  0  0  0  0
    2.1333    1.1122   -2.8053 C   0  0  0  0  0  0  0  0  0  0  0  0
    1.7086    0.5834   -1.6081 C   0  0  0  0  0  0  0  0  0  0  0  0
    2.6658    0.0780   -0.7741 F   0  0  0  0  0  0  0  0  0  0  0  0
   -1.1488   -0.8380    0.0960 N   0  0  0  0  0  0  0  0  0  0  0  0
   -1.5648   -1.3706    1.2331 C   0  0  0  0  0  0  0  0  0  0  0  0
   -1.2713   -2.8699    3.7104 H   0  0  0  0  0  0  0  0  0  0  0  0
   -0.9919   -1.3734    4.6055 H   0  0  0  0  0  0  0  0  0  0  0  0
   -2.5456   -1.6673    3.8073 H   0  0  0  0  0  0  0  0  0  0  0  0
    0.7012   -0.1322    3.3871 H   0  0  0  0  0  0  0  0  0  0  0  0
    1.4956    0.8678    1.2521 H   0  0  0  0  0  0  0  0  0  0  0  0
   -1.6195    0.9370   -1.8605 H   0  0  0  0  0  0  0  0  0  0  0  0
   -0.9337    1.9171   -4.0379 H   0  0  0  0  0  0  0  0  0  0  0  0
    3.1839    1.1457   -3.0607 H   0  0  0  0  0  0  0  0  0  0  0  0
   -2.4428   -2.0074    1.1765 H   0  0  0  0  0  0  0  0  0  0  0  0
  1  2  1  0
  2  3  2  0
  3  4  1  0
  4  5  2  0
  5  6  1  0
  6  7  2  0
  7  8  1  0
  8  9  2  0
  9 10  1  0
  9 11  1  0
 11 12  2  0
 12 13  1  0
  5 14  1  0
 14 15  2  0
 15  2  1  0
 12  6  1  0
  1 16  1  0
  1 17  1  0
  1 18  1  0
  3 19  1  0
  4 20  1  0
  7 21  1  0
  8 22  1  0
 11 23  1  0
 15 24  1  0
M  END
$$$$

     RDKit          3D

 24 25  0  0  0  0  0  0  0  0999 V2000
    1.3814   -2.9325   -2.9464 C   0  0  0  0  0  0  0  0  0  0  0  0
    0.9046   -1.9113   -1.9677 C   0  0  0  0  0  0  0  0  0  0  0  0
    0.3185   -0.7014   -2.3551 C   0  0  0  0  0  0  0  0  0  0  0  0
   -0.1064    0.2045   -1.4052 C   0  0  0  0  0  0  0  0  0  0  0  0
    0.0500   -0.1097   -0.0557 C   0  0  0  0  0  0  0  0  0  0  0  0
   -0.3941    0.8504    0.9900 C   0  0  0  0  0  0  0  0  0  0  0  0
    0.1878    2.1191    1.1021 C   0  0  0  0  0  0  0  0  0  0  0  0
   -0.2015    3.0088    2.0946 C   0  0  0  0  0  0  0  0  0  0  0  0
   -1.2001    2.6172    2.9702 C   0  0  0  0  0  0  0  0  0  0  0  0
   -1.5818    3.4729    3.9452 F   0  0  0  0  0  0  0  0  0  0  0  0
   -1.8251    1.3879    2.9002 C   0  0  0  0  0  0  0  0  0  0  0  0
   -1.3988    0.5370    1.9000 C   0  0  0  0  0  0  0  0  0  0  0  0
   -2.0130   -0.6770    1.8015 F   0  0  0  0  0  0  0  0  0  0  0  0
    0.6060   -1.2549    0.3369 N   0  0  0  0  0  0  0  0  0  0  0  0
    1.0215   -2.1182   -0.5830 C   0  0  0  0  0  0  0  0  0  0  0  0
    1.1809   -2.6181   -3.9731 H   0  0  0  0  0  0  0  0  0  0  0  0
    2.4504   -3.1043   -2.8441 H   0  0  0  0  0  0  0  0  0  0  0  0
    0.8856   -3.8888   -2.7796 H   0  0  0  0  0  0  0  0  0  0  0  0
    0.1983   -0.4849   -3.4067 H   0  0  0  0  0  0  0  0  0  0  0  0
   -0.5579    1.1508   -1.6762 H   0  0  0  0  0  0  0  0  0  0  0  0
    0.9582    2.4008    0.3965 H   0  0  0  0  0  0  0  0  0  0  0  0
    0.2634    3.9832    2.1847 H   0  0  0  0  0  0  0  0  0  0  0  0
   -2.6079    1.1032    3.5895 H   0  0  0  0  0  0  0  0  0  0  0  0
    1.4799   -3.0349   -0.2185 H   0  0  0  0  0  0  0  0  0  0  0  0
  1  2  1  0
  2  3  2  0
  3  4  1  0
  4  5  2  0
  5  6  1  0
  6  7  2  0
  7  8  1  0
  8  9  2  0
  9 10  1  0
  9 11  1  0
 11 12  2  0
 12 13  1  0
  5 14  1  0
 14 15  2  0
 15  2  1  0
 12  6  1  0
  1 16  1  0
  1 17  1  0
  1 18  1  0
  3 19  1  0
  4 20  1  0
  7 21  1  0
  8 22  1  0
 11 23  1  0
 15 24  1  0
M  END
$$$$

     RDKit          3D

 24 25  0  0  0  0  0  0  0  0999 V2000
    0.9393    4.0717   -1.3291 C   0  0  0  0  0  0  0  0  0  0  0  0
    0.5939    2.6942   -0.8747 C   0  0  0  0  0  0  0  0  0  0  0  0
   -0.4051    2.4514    0.0751 C   0  0  0  0  0  0  0  0  0  0  0  0
   -0.6924    1.1648    0.4711 C   0  0  0  0  0  0  0  0  0  0  0  0
    0.0241    0.1017   -0.0922 C   0  0  0  0  0  0  0  0  0  0  0  0
   -0.2200   -1.3083    0.3236 C   0  0  0  0  0  0  0  0  0  0  0  0
    0.8518   -2.1885    0.5006 C   0  0  0  0  0  0  0  0  0  0  0  0
    0.6595   -3.4995    0.9202 C   0  0  0  0  0  0  0  0  0  0  0  0
   -0.6352   -3.9290    1.1559 C   0  0  0  0  0  0  0  0  0  0  0  0
   -0.8330   -5.1975    1.5673 F   0  0  0  0  0  0  0  0  0  0  0  0
   -1.7357   -3.1189    0.9828 C   0  0  0  0  0  0  0  0  0  0  0  0
   -1.4927   -1.8315    0.5649 C   0  0  0  0  0  0  0  0  0  0  0  0
   -2.5801   -1.0333    0.3474 F   0  0  0  0  0  0  0  0  0  0  0  0
    0.9773    0.3162   -1.0030 N   0  0  0  0  0  0  0  0  0  0  0  0
    1.2462    1.5580   -1.3796 C   0  0  0  0  0  0  0  0  0  0  0  0
    1.9293    4.1041   -1.7923 H   0  0  0  0  0  0  0  0  0  0  0  0
    0.9183    4.7676   -0.4916 H   0  0  0  0  0  0  0  0  0  0  0  0
    0.2161    4.4293   -2.0571 H   0  0  0  0  0  0  0  0  0  0  0  0
   -0.9396    3.2871    0.5046 H   0  0  0  0  0  0  0  0  0  0  0  0
   -1.4522    0.9558    1.2131 H   0  0  0  0  0  0  0  0  0  0  0  0
    1.8496   -1.8314    0.2940 H   0  0  0  0  0  0  0  0  0  0  0  0
    1.4969   -4.1710    1.0624 H   0  0  0  0  0  0  0  0  0  0  0  0
   -2.7434   -3.4690    1.1593 H   0  0  0  0  0  0  0  0  0  0  0  0
    2.0272    1.6759   -2.1226 H   0  0  0  0  0  0  0  0  0  0  0  0
  1  2  1  0
  2  3  2  0
  3  4  1  0
  4  5  2  0
  5  6  1  0
  6  7  2  0
  7  8  1  0
  8  9  2  0
  9 10  1  0
  9 11  1  0
 11 12  2  0
 12 13  1  0
  5 14  1  0
 14 15  2  0
 15  2  1  0
 12  6  1  0
  1 16  1  0
  1 17  1  0
  1 18  1  0
  3 19  1  0
  4 20  1  0
  7 21  1  0
  8 22  1  0
 11 23  1  0
 15 24  1  0
M  END
$$$$

     RDKit          3D

 24 25  0  0  0  0  0  0  0  0999 V2000
   -3.3640   -1.1288    2.5791 C   0  0  0  0  0  0  0  0  0  0  0  0
   -2.2019   -0.7348    1.7320 C   0  0  0  0  0  0  0  0  0  0  0  0
   -0.9304   -0.4949    2.2613 C   0  0  0  0  0  0  0  0  0  0  0  0
    0.1200   -0.1610    1.4354 C   0  0  0  0  0  0  0  0  0  0  0  0
   -0.1035   -0.0534    0.0572 C   0  0  0  0  0  0  0  0  0  0  0  0
    0.9799    0.3306   -0.8924 C   0  0  0  0  0  0  0  0  0  0  0  0
    0.6961    1.1337   -2.0035 C   0  0  0  0  0  0  0  0  0  0  0  0
    1.6900    1.5271   -2.8934 C   0  0  0  0  0  0  0  0  0  0  0  0
    2.9848    1.0976   -2.6616 C   0  0  0  0  0  0  0  0  0  0  0  0
    3.9556    1.4735   -3.5180 F   0  0  0  0  0  0  0  0  0  0  0  0
    3.3289    0.2957   -1.5963 C   0  0  0  0  0  0  0  0  0  0  0  0
    2.3122   -0.0677   -0.7457 C   0  0  0  0  0  0  0  0  0  0  0  0
    2.6403   -0.8953    0.2921 F   0  0  0  0  0  0  0  0  0  0  0  0
   -1.3179   -0.2707   -0.4612 N   0  0  0  0  0  0  0  0  0  0  0  0
   -2.3183   -0.6003    0.3385 C   0  0  0  0  0  0  0  0  0  0  0  0
   -4.2665   -0.5886    2.2897 H   0  0  0  0  0  0  0  0  0  0  0  0
   -3.1638   -0.9269    3.6334 H   0  0  0  0  0  0  0  0  0  0  0  0
   -3.5735   -2.1907    2.4741 H   0  0  0  0  0  0  0  0  0  0  0  0
   -0.7795   -0.5609    3.3271 H   0  0  0  0  0  0  0  0  0  0  0  0
    1.1103    0.0211    1.8324 H   0  0  0  0  0  0  0  0  0  0  0  0
   -0.3238    1.4475   -2.1678 H   0  0  0  0  0  0  0  0  0  0  0  0
    1.4625    2.1539   -3.7470 H   0  0  0  0  0  0  0  0  0  0  0  0
    4.3441   -0.0389   -1.4314 H   0  0  0  0  0  0  0  0  0  0  0  0
   -3.2818   -0.7679   -0.1341 H   0  0  0  0  0  0  0  0  0  0  0  0
  1  2  1  0
  2  3  2  0
  3  4  1  0
  4  5  2  0
  5  6  1  0
  6  7  2  0
  7  8  1  0
  8  9  2  0
  9 10  1  0
  9 11  1  0
 11 12  2  0
 12 13  1  0
  5 14  1  0
 14 15  2  0
 15  2  1  0
 12  6  1  0
  1 16  1  0
  1 17  1  0
  1 18  1  0
  3 19  1  0
  4 20  1  0
  7 21  1  0
  8 22  1  0
 11 23  1  0
 15 24  1  0
M  END
$$$$

     RDKit          3D

 24 25  0  0  0  0  0  0  0  0999 V2000
    2.0662   -3.4217    1.7948 C   0  0  0  0  0  0  0  0  0  0  0  0
    1.3466   -2.2710    1.1802 C   0  0  0  0  0  0  0  0  0  0  0  0
   -0.0523   -2.1811    1.1801 C   0  0  0  0  0  0  0  0  0  0  0  0
   -0.6798   -1.0967    0.6121 C   0  0  0  0  0  0  0  0  0  0  0  0
    0.0997   -0.0822    0.0442 C   0  0  0  0  0  0  0  0  0  0  0  0
   -0.5246    1.1157   -0.5837 C   0  0  0  0  0  0  0  0  0  0  0  0
   -0.1088    1.5685   -1.8386 C   0  0  0  0  0  0  0  0  0  0  0  0
   -0.7077    2.6638   -2.4524 C   0  0  0  0  0  0  0  0  0  0  0  0
   -1.7287    3.3162   -1.7812 C   0  0  0  0  0  0  0  0  0  0  0  0
   -2.3169    4.3783   -2.3698 F   0  0  0  0  0  0  0  0  0  0  0  0
   -2.1689    2.9340   -0.5330 C   0  0  0  0  0  0  0  0  0  0  0  0
   -1.5466    1.8438    0.0295 C   0  0  0  0  0  0  0  0  0  0  0  0
   -1.9514    1.4712    1.2812 F   0  0  0  0  0  0  0  0  0  0  0  0
    1.4309   -0.1582    0.0228 N   0  0  0  0  0  0  0  0  0  0  0  0
    2.0281   -1.2077    0.5681 C   0  0  0  0  0  0  0  0  0  0  0  0
    1.7538   -4.3588    1.3427 H   0  0  0  0  0  0  0  0  0  0  0  0
    1.8380   -3.4946    2.8560 H   0  0  0  0  0  0  0  0  0  0  0  0
    3.1505   -3.3271    1.6801 H   0  0  0  0  0  0  0  0  0  0  0  0
   -0.6330   -2.9791    1.6209 H   0  0  0  0  0  0  0  0  0  0  0  0
   -1.7618   -1.0095    0.5943 H   0  0  0  0  0  0  0  0  0  0  0  0
    0.7071    1.0565   -2.3310 H   0  0  0  0  0  0  0  0  0  0  0  0
   -0.3933    3.0002   -3.4324 H   0  0  0  0  0  0  0  0  0  0  0  0
   -2.9577    3.4588   -0.0129 H   0  0  0  0  0  0  0  0  0  0  0  0
    3.1106   -1.2192    0.5278 H   0  0  0  0  0  0  0  0  0  0  0  0
  1  2  1  0
  2  3  2  0
  3  4  1  0
  4  5  2  0
  5  6  1  0
  6  7  2  0
  7  8  1  0
  8  9  2  0
  9 10  1  0
  9 11  1  0
 11 12  2  0
 12 13  1  0
  5 14  1  0
 14 15  2  0
 15  2  1  0
 12  6  1  0
  1 16  1  0
  1 17  1  0
  1 18  1  0
  3 19  1  0
  4 20  1  0
  7 21  1  0
  8 22  1  0
 11 23  1  0
 15 24  1  0
M  END
$$$$

     RDKit          3D

 24 25  0  0  0  0  0  0  0  0999 V2000
    0.7325    0.6911   -4.2673 C   0  0  0  0  0  0  0  0  0  0  0  0
    0.4940    0.5040   -2.8063 C   0  0  0  0  0  0  0  0  0  0  0  0
    0.4731    1.5637   -1.8941 C   0  0  0  0  0  0  0  0  0  0  0  0
    0.2330    1.3286   -0.5578 C   0  0  0  0  0  0  0  0  0  0  0  0
    0.0290    0.0146   -0.1226 C   0  0  0  0  0  0  0  0  0  0  0  0
   -0.2327   -0.3184    1.3062 C   0  0  0  0  0  0  0  0  0  0  0  0
   -1.1454   -1.3248    1.6434 C   0  0  0  0  0  0  0  0  0  0  0  0
   -1.4228   -1.6449    2.9679 C   0  0  0  0  0  0  0  0  0  0  0  0
   -0.7559   -0.9508    3.9631 C   0  0  0  0  0  0  0  0  0  0  0  0
   -1.0178   -1.2559    5.2506 F   0  0  0  0  0  0  0  0  0  0  0  0
    0.1662    0.0377    3.7001 C   0  0  0  0  0  0  0  0  0  0  0  0
    0.4013    0.3214    2.3752 C   0  0  0  0  0  0  0  0  0  0  0  0
    1.3492    1.2672    2.1022 F   0  0  0  0  0  0  0  0  0  0  0  0
    0.0362   -1.0082   -0.9862 N   0  0  0  0  0  0  0  0  0  0  0  0
    0.2634   -0.7729   -2.2660 C   0  0  0  0  0  0  0  0  0  0  0  0
    0.9593    1.7321   -4.5039 H   0  0  0  0  0  0  0  0  0  0  0  0
   -0.1461    0.3963   -4.8421 H   0  0  0  0  0  0  0  0  0  0  0  0
    1.5585    0.0697   -4.6092 H   0  0  0  0  0  0  0  0  0  0  0  0
    0.6436    2.5703   -2.2413 H   0  0  0  0  0  0  0  0  0  0  0  0
    0.1932    2.1392    0.1584 H   0  0  0  0  0  0  0  0  0  0  0  0
   -1.6347   -1.8643    0.8467 H   0  0  0  0  0  0  0  0  0  0  0  0
   -2.1370   -2.4201    3.2189 H   0  0  0  0  0  0  0  0  0  0  0  0
    0.6888    0.5646    4.4850 H   0  0  0  0  0  0  0  0  0  0  0  0
    0.2707   -1.6404   -2.9208 H   0  0  0  0  0  0  0  0  0  0  0  0
  1  2  1  0
  2  3  2  0
  3  4  1  0
  4  5  2  0
  5  6  1  0
  6  7  2  0
  7  8  1  0
  8  9  2  0
  9 10  1  0
  9 11  1  0
 11 12  2  0
 12 13  1  0
  5 14  1  0
 14 15  2  0
 15  2  1  0
 12  6  1  0
  1 16  1  0
  1 17  1  0
  1 18  1  0
  3 19  1  0
  4 20  1  0
  7 21  1  0
  8 22  1  0
 11 23  1  0
 15 24  1  0
M  END
$$$$

     RDKit          3D

 24 25  0  0  0  0  0  0  0  0999 V2000
   -1.9754    3.8348    0.7810 C   0  0  0  0  0  0  0  0  0  0  0  0
   -1.3432    2.5114    0.5082 C   0  0  0  0  0  0  0  0  0  0  0  0
   -2.0477    1.4296   -0.0295 C   0  0  0  0  0  0  0  0  0  0  0  0
   -1.4117    0.2313   -0.2651 C   0  0  0  0  0  0  0  0  0  0  0  0
   -0.0514    0.1096    0.0401 C   0  0  0  0  0  0  0  0  0  0  0  0
    0.7034   -1.1516   -0.2001 C   0  0  0  0  0  0  0  0  0  0  0  0
    2.0287   -1.1068   -0.6475 C   0  0  0  0  0  0  0  0  0  0  0  0
    2.7548   -2.2666   -0.8968 C   0  0  0  0  0  0  0  0  0  0  0  0
    2.1361   -3.4860   -0.6773 C   0  0  0  0  0  0  0  0  0  0  0  0
    2.8327   -4.6151   -0.9179 F   0  0  0  0  0  0  0  0  0  0  0  0
    0.8419   -3.6006   -0.2188 C   0  0  0  0  0  0  0  0  0  0  0  0
    0.1638   -2.4256    0.0054 C   0  0  0  0  0  0  0  0  0  0  0  0
   -1.1106   -2.5259    0.4914 F   0  0  0  0  0  0  0  0  0  0  0  0
    0.6373    1.1398    0.5466 N   0  0  0  0  0  0  0  0  0  0  0  0
    0.0182    2.2841    0.7739 C   0  0  0  0  0  0  0  0  0  0  0  0
   -1.8313    4.1299    1.8202 H   0  0  0  0  0  0  0  0  0  0  0  0
   -1.5279    4.6112    0.1610 H   0  0  0  0  0  0  0  0  0  0  0  0
   -3.0472    3.8092    0.5723 H   0  0  0  0  0  0  0  0  0  0  0  0
   -3.0951    1.5406   -0.2643 H   0  0  0  0  0  0  0  0  0  0  0  0
   -1.9395   -0.6147   -0.6843 H   0  0  0  0  0  0  0  0  0  0  0  0
    2.4900   -0.1420   -0.8014 H   0  0  0  0  0  0  0  0  0  0  0  0
    3.7773   -2.2223   -1.2518 H   0  0  0  0  0  0  0  0  0  0  0  0
    0.3754   -4.5588   -0.0398 H   0  0  0  0  0  0  0  0  0  0  0  0
    0.6215    3.0843    1.1945 H   0  0  0  0  0  0  0  0  0  0  0  0
  1  2  1  0
  2  3  2  0
  3  4  1  0
  4  5  2  0
  5  6  1  0
  6  7  2  0
  7  8  1  0
  8  9  2  0
  9 10  1  0
  9 11  1  0
 11 12  2  0
 12 13  1  0
  5 14  1  0
 14 15  2  0
 15  2  1  0
 12  6  1  0
  1 16  1  0
  1 17  1  0
  1 18  1  0
  3 19  1  0
  4 20  1  0
  7 21  1  0
  8 22  1  0
 11 23  1  0
 15 24  1  0
M  END
$$$$

     RDKit          3D

 24 25  0  0  0  0  0  0  0  0999 V2000
   -2.9627    1.5835   -2.8188 C   0  0  0  0  0  0  0  0  0  0  0  0
   -1.9879    1.0209   -1.8396 C   0  0  0  0  0  0  0  0  0  0  0  0
   -1.9251   -0.3460   -1.5461 C   0  0  0  0  0  0  0  0  0  0  0  0
   -0.9864   -0.8264   -0.6600 C   0  0  0  0  0  0  0  0  0  0  0  0
   -0.0877    0.0690   -0.0672 C   0  0  0  0  0  0  0  0  0  0  0  0
    0.9621   -0.3858    0.8884 C   0  0  0  0  0  0  0  0  0  0  0  0
    1.2800    0.3810    2.0147 C   0  0  0  0  0  0  0  0  0  0  0  0
    2.2404   -0.0328    2.9317 C   0  0  0  0  0  0  0  0  0  0  0  0
    2.8976   -1.2281    2.6974 C   0  0  0  0  0  0  0  0  0  0  0  0
    3.8352   -1.6343    3.5779 F   0  0  0  0  0  0  0  0  0  0  0  0
    2.6449   -2.0215    1.6001 C   0  0  0  0  0  0  0  0  0  0  0  0
    1.6846   -1.5715    0.7250 C   0  0  0  0  0  0  0  0  0  0  0  0
    1.4505   -2.3305   -0.3883 F   0  0  0  0  0  0  0  0  0  0  0  0
   -0.1496    1.3791   -0.3215 N   0  0  0  0  0  0  0  0  0  0  0  0
   -1.0547    1.8333   -1.1741 C   0  0  0  0  0  0  0  0  0  0  0  0
   -3.8676    0.9768   -2.8548 H   0  0  0  0  0  0  0  0  0  0  0  0
   -2.5368    1.5909   -3.8200 H   0  0  0  0  0  0  0  0  0  0  0  0
   -3.2361    2.6102   -2.5652 H   0  0  0  0  0  0  0  0  0  0  0  0
   -2.6258   -1.0215   -2.0134 H   0  0  0  0  0  0  0  0  0  0  0  0
   -0.9283   -1.8796   -0.4125 H   0  0  0  0  0  0  0  0  0  0  0  0
    0.7715    1.3234    2.1580 H   0  0  0  0  0  0  0  0  0  0  0  0
    2.4655    0.5557    3.8127 H   0  0  0  0  0  0  0  0  0  0  0  0
    3.1712   -2.9497    1.4251 H   0  0  0  0  0  0  0  0  0  0  0  0
   -1.0550    2.9040   -1.3498 H   0  0  0  0  0  0  0  0  0  0  0  0
  1  2  1  0
  2  3  2  0
  3  4  1  0
  4  5  2  0
  5  6  1  0
  6  7  2  0
  7  8  1  0
  8  9  2  0
  9 10  1  0
  9 11  1  0
 11 12  2  0
 12 13  1  0
  5 14  1  0
 14 15  2  0
 15  2  1  0
 12  6  1  0
  1 16  1  0
  1 17  1  0
  1 18  1  0
  3 19  1  0
  4 20  1  0
  7 21  1  0
  8 22  1  0
 11 23  1  0
 15 24  1  0
M  END
$$$$

     RDKit          3D

 24 25  0  0  0  0  0  0  0  0999 V2000
   -4.1113   -1.0715    1.0887 C   0  0  0  0  0  0  0  0  0  0  0  0
   -2.7264   -0.6864    0.6947 C   0  0  0  0  0  0  0  0  0  0  0  0
   -2.4562    0.4173   -0.1206 C   0  0  0  0  0  0  0  0  0  0  0  0
   -1.1589    0.7364   -0.4525 C   0  0  0  0  0  0  0  0  0  0  0  0
   -0.1130   -0.0621    0.0285 C   0  0  0  0  0  0  0  0  0  0  0  0
    1.3133    0.2302   -0.2910 C   0  0  0  0  0  0  0  0  0  0  0  0
    2.3140   -0.0030    0.6598 C   0  0  0  0  0  0  0  0  0  0  0  0
    3.6481    0.2993    0.4064 C   0  0  0  0  0  0  0  0  0  0  0  0
    3.9771    0.8312   -0.8281 C   0  0  0  0  0  0  0  0  0  0  0  0
    5.2671    1.1318   -1.0822 F   0  0  0  0  0  0  0  0  0  0  0  0
    3.0473    1.0615   -1.8163 C   0  0  0  0  0  0  0  0  0  0  0  0
    1.7428    0.7444   -1.5185 C   0  0  0  0  0  0  0  0  0  0  0  0
    0.8269    0.9172   -2.5175 F   0  0  0  0  0  0  0  0  0  0  0  0
   -0.3575   -1.1131    0.8202 N   0  0  0  0  0  0  0  0  0  0  0  0
   -1.6059   -1.4104    1.1364 C   0  0  0  0  0  0  0  0  0  0  0  0
   -4.2473   -2.1514    1.0355 H   0  0  0  0  0  0  0  0  0  0  0  0
   -4.8509   -0.5907    0.4477 H   0  0  0  0  0  0  0  0  0  0  0  0
   -4.3201   -0.7691    2.1125 H   0  0  0  0  0  0  0  0  0  0  0  0
   -3.2731    1.0213   -0.4856 H   0  0  0  0  0  0  0  0  0  0  0  0
   -0.9313    1.5925   -1.0753 H   0  0  0  0  0  0  0  0  0  0  0  0
    2.0330   -0.4346    1.6086 H   0  0  0  0  0  0  0  0  0  0  0  0
    4.4132    0.1205    1.1518 H   0  0  0  0  0  0  0  0  0  0  0  0
    3.3177    1.4649   -2.7811 H   0  0  0  0  0  0  0  0  0  0  0  0
   -1.7485   -2.2759    1.7780 H   0  0  0  0  0  0  0  0  0  0  0  0
  1  2  1  0
  2  3  2  0
  3  4  1  0
  4  5  2  0
  5  6  1  0
  6  7  2  0
  7  8  1  0
  8  9  2  0
  9 10  1  0
  9 11  1  0
 11 12  2  0
 12 13  1  0
  5 14  1  0
 14 15  2  0
 15  2  1  0
 12  6  1  0
  1 16  1  0
  1 17  1  0
  1 18  1  0
  3 19  1  0
  4 20  1  0
  7 21  1  0
  8 22  1  0
 11 23  1  0
 15 24  1  0
M  END
$$$$

     RDKit          3D

 24 25  0  0  0  0  0  0  0  0999 V2000
    3.3694    1.9379    2.0272 C   0  0  0  0  0  0  0  0  0  0  0  0
    2.2480    1.2581    1.3176 C   0  0  0  0  0  0  0  0  0  0  0  0
    2.4090    0.6182    0.0833 C   0  0  0  0  0  0  0  0  0  0  0  0
    1.3379    0.0134   -0.5340 C   0  0  0  0  0  0  0  0  0  0  0  0
    0.0837    0.0564    0.0840 C   0  0  0  0  0  0  0  0  0  0  0  0
   -1.1177   -0.5632   -0.5413 C   0  0  0  0  0  0  0  0  0  0  0  0
   -2.0274   -1.2942    0.2306 C   0  0  0  0  0  0  0  0  0  0  0  0
   -3.1421   -1.9032   -0.3367 C   0  0  0  0  0  0  0  0  0  0  0  0
   -3.3446   -1.7571   -1.6985 C   0  0  0  0  0  0  0  0  0  0  0  0
   -4.4229   -2.3416   -2.2607 F   0  0  0  0  0  0  0  0  0  0  0  0
   -2.4971   -1.0374   -2.5116 C   0  0  0  0  0  0  0  0  0  0  0  0
   -1.4078   -0.4591   -1.9048 C   0  0  0  0  0  0  0  0  0  0  0  0
   -0.5808    0.2887   -2.6959 F   0  0  0  0  0  0  0  0  0  0  0  0
   -0.0798    0.6402    1.2767 N   0  0  0  0  0  0  0  0  0  0  0  0
    0.9544    1.2159    1.8647 C   0  0  0  0  0  0  0  0  0  0  0  0
    3.0736    2.9304    2.3662 H   0  0  0  0  0  0  0  0  0  0  0  0
    3.6681    1.3737    2.9076 H   0  0  0  0  0  0  0  0  0  0  0  0
    4.2399    2.0370    1.3754 H   0  0  0  0  0  0  0  0  0  0  0  0
    3.3821    0.5943   -0.3821 H   0  0  0  0  0  0  0  0  0  0  0  0
    1.4449   -0.4950   -1.4843 H   0  0  0  0  0  0  0  0  0  0  0  0
   -1.8460   -1.3852    1.2926 H   0  0  0  0  0  0  0  0  0  0  0  0
   -3.8365   -2.4777    0.2650 H   0  0  0  0  0  0  0  0  0  0  0  0
   -2.6733   -0.9275   -3.5717 H   0  0  0  0  0  0  0  0  0  0  0  0
    0.7650    1.6769    2.8304 H   0  0  0  0  0  0  0  0  0  0  0  0
  1  2  1  0
  2  3  2  0
  3  4  1  0
  4  5  2  0
  5  6  1  0
  6  7  2  0
  7  8  1  0
  8  9  2  0
  9 10  1  0
  9 11  1  0
 11 12  2  0
 12 13  1  0
  5 14  1  0
 14 15  2  0
 15  2  1  0
 12  6  1  0
  1 16  1  0
  1 17  1  0
  1 18  1  0
  3 19  1  0
  4 20  1  0
  7 21  1  0
  8 22  1  0
 11 23  1  0
 15 24  1  0
M  END
$$$$

     RDKit          3D

 24 25  0  0  0  0  0  0  0  0999 V2000
   -2.2003   -0.3088   -3.7794 C   0  0  0  0  0  0  0  0  0  0  0  0
   -1.4786   -0.2084   -2.4772 C   0  0  0  0  0  0  0  0  0  0  0  0
   -2.0672   -0.5644   -1.2585 C   0  0  0  0  0  0  0  0  0  0  0  0
   -1.3532   -0.4647   -0.0858 C   0  0  0  0  0  0  0  0  0  0  0  0
   -0.0366    0.0085   -0.1266 C   0  0  0  0  0  0  0  0  0  0  0  0
    0.7800    0.1503    1.1107 C   0  0  0  0  0  0  0  0  0  0  0  0
    2.1338   -0.1986    1.1132 C   0  0  0  0  0  0  0  0  0  0  0  0
    2.9047   -0.1152    2.2678 C   0  0  0  0  0  0  0  0  0  0  0  0
    2.2999    0.3421    3.4271 C   0  0  0  0  0  0  0  0  0  0  0  0
    3.0344    0.4178    4.5565 F   0  0  0  0  0  0  0  0  0  0  0  0
    0.9785    0.7271    3.4851 C   0  0  0  0  0  0  0  0  0  0  0  0
    0.2595    0.6232    2.3187 C   0  0  0  0  0  0  0  0  0  0  0  0
   -1.0418    1.0443    2.3507 F   0  0  0  0  0  0  0  0  0  0  0  0
    0.5460    0.3322   -1.2846 N   0  0  0  0  0  0  0  0  0  0  0  0
   -0.1457    0.2303   -2.4088 C   0  0  0  0  0  0  0  0  0  0  0  0
   -1.8994    0.4881   -4.4611 H   0  0  0  0  0  0  0  0  0  0  0  0
   -3.2813   -0.2582   -3.6329 H   0  0  0  0  0  0  0  0  0  0  0  0
   -1.9819   -1.2557   -4.2666 H   0  0  0  0  0  0  0  0  0  0  0  0
   -3.0881   -0.9176   -1.2433 H   0  0  0  0  0  0  0  0  0  0  0  0
   -1.7854   -0.7421    0.8671 H   0  0  0  0  0  0  0  0  0  0  0  0
    2.5808   -0.5377    0.1896 H   0  0  0  0  0  0  0  0  0  0  0  0
    3.9494   -0.4027    2.2646 H   0  0  0  0  0  0  0  0  0  0  0  0
    0.5225    1.0935    4.3943 H   0  0  0  0  0  0  0  0  0  0  0  0
    0.3702    0.5167   -3.3209 H   0  0  0  0  0  0  0  0  0  0  0  0
  1  2  1  0
  2  3  2  0
  3  4  1  0
  4  5  2  0
  5  6  1  0
  6  7  2  0
  7  8  1  0
  8  9  2  0
  9 10  1  0
  9 11  1  0
 11 12  2  0
 12 13  1  0
  5 14  1  0
 14 15  2  0
 15  2  1  0
 12  6  1  0
  1 16  1  0
  1 17  1  0
  1 18  1  0
  3 19  1  0
  4 20  1  0
  7 21  1  0
  8 22  1  0
 11 23  1  0
 15 24  1  0
M  END
$$$$
