
     RDKit          3D

 24 25  0  0  0  0  0  0  0  0999 V2000
   -2.8665    1.1397   -3.1003 C   0  0  0  0  0  0  0  0  0  0  0  0
   -1.8944    0.7830   -2.0246 C   0  0  0  0  0  0  0  0  0  0  0  0
   -1.7805    1.5034   -0.8329 C   0  0  0  0  0  0  0  0  0  0  0  0
   -0.8611    1.1334    0.1208 C   0  0  0  0  0  0  0  0  0  0  0  0
   -0.0407    0.0290   -0.1240 C   0  0  0  0  0  0  0  0  0  0  0  0
    0.9488   -0.4459    0.8847 C   0  0  0  0  0  0  0  0  0  0  0  0
    0.8916   -1.7674    1.3336 C   0  0  0  0  0  0  0  0  0  0  0  0
    1.7557   -2.2416    2.3136 C   0  0  0  0  0  0  0  0  0  0  0  0
    2.6975   -1.3729    2.8318 C   0  0  0  0  0  0  0  0  0  0  0  0
    3.5366   -1.8171    3.7896 F   0  0  0  0  0  0  0  0  0  0  0  0
    2.8165   -0.0620    2.4070 C   0  0  0  0  0  0  0  0  0  0  0  0
    1.9464    0.3729    1.4370 C   0  0  0  0  0  0  0  0  0  0  0  0
    2.1559    2.0043    0.8434 Cl  0  0  0  0  0  0  0  0  0  0  0  0
   -0.1380   -0.6715   -1.2534 N   0  0  0  0  0  0  0  0  0  0  0  0
   -1.0220   -0.3087   -2.1647 C   0  0  0  0  0  0  0  0  0  0  0  0
   -3.5456    1.9302   -2.7764 H   0  0  0  0  0  0  0  0  0  0  0  0
   -3.4582    0.2753   -3.3962 H   0  0  0  0  0  0  0  0  0  0  0  0
   -2.3430    1.4867   -3.9904 H   0  0  0  0  0  0  0  0  0  0  0  0
   -2.4242    2.3553   -0.6657 H   0  0  0  0  0  0  0  0  0  0  0  0
   -0.7490    1.6809    1.0534 H   0  0  0  0  0  0  0  0  0  0  0  0
    0.1528   -2.4233    0.8970 H   0  0  0  0  0  0  0  0  0  0  0  0
    1.7000   -3.2648    2.6655 H   0  0  0  0  0  0  0  0  0  0  0  0
    3.5761    0.5887    2.8238 H   0  0  0  0  0  0  0  0  0  0  0  0
   -1.0547   -0.9078   -3.0726 H   0  0  0  0  0  0  0  0  0  0  0  0
  1  2  1  0
  2  3  2  0
  3  4  1  0
  4  5  2  0
  5  6  1  0
  6  7  2  0
  7  8  1  0
  8  9  2  0
  9 10  1  0
  9 11  1  0
 11 12  2  0
 12 13  1  0
  5 14  1  0
 14 15  2  0
 15  2  1  0
 12  6  1  0
  1 16  1  0
  1 17  1  0
  1 18  1  0
  3 19  1  0
  4 20  1  0
  7 21  1  0
  8 22  1  0
 11 23  1  0
 15 24  1  0
M  END
$$$$

     RDKit          3D

 24 25  0  0  0  0  0  0  0  0999 V2000
    3.7608    1.7236   -1.4215 C   0  0  0  0  0  0  0  0  0  0  0  0
    2.4668    1.1290   -0.9730 C   0  0  0  0  0  0  0  0  0  0  0  0
    1.8888    0.0191   -1.5971 C   0  0  0  0  0  0  0  0  0  0  0  0
    0.7115   -0.5109   -1.1243 C   0  0  0  0  0  0  0  0  0  0  0  0
    0.1087    0.0728   -0.0068 C   0  0  0  0  0  0  0  0  0  0  0  0
   -1.1743   -0.4537    0.5428 C   0  0  0  0  0  0  0  0  0  0  0  0
   -2.2691    0.4026    0.6775 C   0  0  0  0  0  0  0  0  0  0  0  0
   -3.4924   -0.0491    1.1581 C   0  0  0  0  0  0  0  0  0  0  0  0
   -3.6088   -1.3815    1.5029 C   0  0  0  0  0  0  0  0  0  0  0  0
   -4.7911   -1.8358    1.9658 F   0  0  0  0  0  0  0  0  0  0  0  0
   -2.5569   -2.2736    1.3987 C   0  0  0  0  0  0  0  0  0  0  0  0
   -1.3585   -1.7926    0.9293 C   0  0  0  0  0  0  0  0  0  0  0  0
   -0.0141   -2.9123    0.8636 Cl  0  0  0  0  0  0  0  0  0  0  0  0
    0.6346    1.1415    0.5918 N   0  0  0  0  0  0  0  0  0  0  0  0
    1.7694    1.6413    0.1326 C   0  0  0  0  0  0  0  0  0  0  0  0
    3.7647    2.8063   -1.2998 H   0  0  0  0  0  0  0  0  0  0  0  0
    3.9585    1.4898   -2.4662 H   0  0  0  0  0  0  0  0  0  0  0  0
    4.5872    1.3253   -0.8329 H   0  0  0  0  0  0  0  0  0  0  0  0
    2.3700   -0.4145   -2.4640 H   0  0  0  0  0  0  0  0  0  0  0  0
    0.2446   -1.3752   -1.5898 H   0  0  0  0  0  0  0  0  0  0  0  0
   -2.1480    1.4395    0.4019 H   0  0  0  0  0  0  0  0  0  0  0  0
   -4.3393    0.6174    1.2592 H   0  0  0  0  0  0  0  0  0  0  0  0
   -2.6819   -3.3118    1.6883 H   0  0  0  0  0  0  0  0  0  0  0  0
    2.1689    2.5030    0.6629 H   0  0  0  0  0  0  0  0  0  0  0  0
  1  2  1  0
  2  3  2  0
  3  4  1  0
  4  5  2  0
  5  6  1  0
  6  7  2  0
  7  8  1  0
  8  9  2  0
  9 10  1  0
  9 11  1  0
 11 12  2  0
 12 13  1  0
  5 14  1  0
 14 15  2  0
 15  2  1  0
 12  6  1  0
  1 16  1  0
  1 17  1  0
  1 18  1  0
  3 19  1  0
  4 20  1  0
  7 21  1  0
  8 22  1  0
 11 23  1  0
 15 24  1  0
M  END
$$$$

     RDKit          3D

 24 25  0  0  0  0  0  0  0  0999 V2000
    3.4285   -0.3805    2.6926 C   0  0  0  0  0  0  0  0  0  0  0  0
    2.2682   -0.2582    1.7648 C   0  0  0  0  0  0  0  0  0  0  0  0
    1.6496   -1.3782    1.1997 C   0  0  0  0  0  0  0  0  0  0  0  0
    0.5859   -1.2253    0.3439 C   0  0  0  0  0  0  0  0  0  0  0  0
    0.1291    0.0605    0.0486 C   0  0  0  0  0  0  0  0  0  0  0  0
   -1.0516    0.2431   -0.8465 C   0  0  0  0  0  0  0  0  0  0  0  0
   -2.2338   -0.4591   -0.5661 C   0  0  0  0  0  0  0  0  0  0  0  0
   -3.3663   -0.3182   -1.3483 C   0  0  0  0  0  0  0  0  0  0  0  0
   -3.3164    0.5361   -2.4282 C   0  0  0  0  0  0  0  0  0  0  0  0
   -4.4150    0.6837   -3.1962 F   0  0  0  0  0  0  0  0  0  0  0  0
   -2.1776    1.2479   -2.7640 C   0  0  0  0  0  0  0  0  0  0  0  0
   -1.0623    1.0810   -1.9711 C   0  0  0  0  0  0  0  0  0  0  0  0
    0.3843    1.9427   -2.4356 Cl  0  0  0  0  0  0  0  0  0  0  0  0
    0.6962    1.1368    0.5863 N   0  0  0  0  0  0  0  0  0  0  0  0
    1.7235    0.9836    1.4104 C   0  0  0  0  0  0  0  0  0  0  0  0
    3.9263    0.5804    2.8365 H   0  0  0  0  0  0  0  0  0  0  0  0
    3.1093   -0.7458    3.6645 H   0  0  0  0  0  0  0  0  0  0  0  0
    4.1542   -1.0955    2.3140 H   0  0  0  0  0  0  0  0  0  0  0  0
    2.0264   -2.3666    1.4330 H   0  0  0  0  0  0  0  0  0  0  0  0
    0.0900   -2.0779   -0.1022 H   0  0  0  0  0  0  0  0  0  0  0  0
   -2.2475   -1.1286    0.2800 H   0  0  0  0  0  0  0  0  0  0  0  0
   -4.2752   -0.8610   -1.1168 H   0  0  0  0  0  0  0  0  0  0  0  0
   -2.1769    1.9067   -3.6252 H   0  0  0  0  0  0  0  0  0  0  0  0
    2.1512    1.8925    1.8258 H   0  0  0  0  0  0  0  0  0  0  0  0
  1  2  1  0
  2  3  2  0
  3  4  1  0
  4  5  2  0
  5  6  1  0
  6  7  2  0
  7  8  1  0
  8  9  2  0
  9 10  1  0
  9 11  1  0
 11 12  2  0
 12 13  1  0
  5 14  1  0
 14 15  2  0
 15  2  1  0
 12  6  1  0
  1 16  1  0
  1 17  1  0
  1 18  1  0
  3 19  1  0
  4 20  1  0
  7 21  1  0
  8 22  1  0
 11 23  1  0
 15 24  1  0
M  END
$$$$

     RDKit          3D

 24 25  0  0  0  0  0  0  0  0999 V2000
    1.1629   -3.4732    2.3856 C   0  0  0  0  0  0  0  0  0  0  0  0
    0.7997   -2.2837    1.5603 C   0  0  0  0  0  0  0  0  0  0  0  0
    1.4328   -1.9864    0.3489 C   0  0  0  0  0  0  0  0  0  0  0  0
    1.0620   -0.8784   -0.3769 C   0  0  0  0  0  0  0  0  0  0  0  0
    0.0329   -0.0667    0.1084 C   0  0  0  0  0  0  0  0  0  0  0  0
   -0.4446    1.1218   -0.6536 C   0  0  0  0  0  0  0  0  0  0  0  0
   -1.7594    1.1534   -1.1210 C   0  0  0  0  0  0  0  0  0  0  0  0
   -2.2400    2.2236   -1.8644 C   0  0  0  0  0  0  0  0  0  0  0  0
   -1.3836    3.2755   -2.1264 C   0  0  0  0  0  0  0  0  0  0  0  0
   -1.8364    4.3161   -2.8571 F   0  0  0  0  0  0  0  0  0  0  0  0
   -0.0765    3.3051   -1.6769 C   0  0  0  0  0  0  0  0  0  0  0  0
    0.3670    2.2290   -0.9448 C   0  0  0  0  0  0  0  0  0  0  0  0
    2.0035    2.2887   -0.3230 Cl  0  0  0  0  0  0  0  0  0  0  0  0
   -0.5951   -0.3437    1.2499 N   0  0  0  0  0  0  0  0  0  0  0  0
   -0.2184   -1.4020    1.9508 C   0  0  0  0  0  0  0  0  0  0  0  0
    0.9629   -3.2958    3.4430 H   0  0  0  0  0  0  0  0  0  0  0  0
    2.2174   -3.7234    2.2662 H   0  0  0  0  0  0  0  0  0  0  0  0
    0.5892   -4.3432    2.0804 H   0  0  0  0  0  0  0  0  0  0  0  0
    2.2165   -2.6436   -0.0106 H   0  0  0  0  0  0  0  0  0  0  0  0
    1.5534   -0.6118   -1.3092 H   0  0  0  0  0  0  0  0  0  0  0  0
   -2.4067    0.3201   -0.8887 H   0  0  0  0  0  0  0  0  0  0  0  0
   -3.2572    2.2430   -2.2316 H   0  0  0  0  0  0  0  0  0  0  0  0
    0.5617    4.1521   -1.8966 H   0  0  0  0  0  0  0  0  0  0  0  0
   -0.7438   -1.5764    2.8871 H   0  0  0  0  0  0  0  0  0  0  0  0
  1  2  1  0
  2  3  2  0
  3  4  1  0
  4  5  2  0
  5  6  1  0
  6  7  2  0
  7  8  1  0
  8  9  2  0
  9 10  1  0
  9 11  1  0
 11 12  2  0
 12 13  1  0
  5 14  1  0
 14 15  2  0
 15  2  1  0
 12  6  1  0
  1 16  1  0
  1 17  1  0
  1 18  1  0
  3 19  1  0
  4 20  1  0
  7 21  1  0
  8 22  1  0
 11 23  1  0
 15 24  1  0
M  END
$$$$

     RDKit          3D

 24 25  0  0  0  0  0  0  0  0999 V2000
   -2.3898   -3.3582    1.4535 C   0  0  0  0  0  0  0  0  0  0  0  0
   -1.5302   -2.2365    0.9714 C   0  0  0  0  0  0  0  0  0  0  0  0
   -0.3395   -2.4438    0.2652 C   0  0  0  0  0  0  0  0  0  0  0  0
    0.4030   -1.3730   -0.1741 C   0  0  0  0  0  0  0  0  0  0  0  0
   -0.0516   -0.0794    0.0932 C   0  0  0  0  0  0  0  0  0  0  0  0
    0.6755    1.1243   -0.3972 C   0  0  0  0  0  0  0  0  0  0  0  0
    0.0154    2.0255   -1.2349 C   0  0  0  0  0  0  0  0  0  0  0  0
    0.6550    3.1483   -1.7440 C   0  0  0  0  0  0  0  0  0  0  0  0
    1.9716    3.3687   -1.3885 C   0  0  0  0  0  0  0  0  0  0  0  0
    2.6059    4.4526   -1.8831 F   0  0  0  0  0  0  0  0  0  0  0  0
    2.6705    2.5206   -0.5461 C   0  0  0  0  0  0  0  0  0  0  0  0
    2.0080    1.4164   -0.0647 C   0  0  0  0  0  0  0  0  0  0  0  0
    2.8712    0.3729    1.0483 Cl  0  0  0  0  0  0  0  0  0  0  0  0
   -1.1835    0.1363    0.7596 N   0  0  0  0  0  0  0  0  0  0  0  0
   -1.8877   -0.8968    1.1860 C   0  0  0  0  0  0  0  0  0  0  0  0
   -3.1348   -3.6246    0.7117 H   0  0  0  0  0  0  0  0  0  0  0  0
   -1.7927   -4.2509    1.6488 H   0  0  0  0  0  0  0  0  0  0  0  0
   -2.9205   -3.0847    2.3682 H   0  0  0  0  0  0  0  0  0  0  0  0
   -0.0102   -3.4548    0.0633 H   0  0  0  0  0  0  0  0  0  0  0  0
    1.3367   -1.5027   -0.7138 H   0  0  0  0  0  0  0  0  0  0  0  0
   -1.0176    1.8362   -1.4830 H   0  0  0  0  0  0  0  0  0  0  0  0
    0.1397    3.8406   -2.4005 H   0  0  0  0  0  0  0  0  0  0  0  0
    3.7002    2.7315   -0.2801 H   0  0  0  0  0  0  0  0  0  0  0  0
   -2.7947   -0.6686    1.7409 H   0  0  0  0  0  0  0  0  0  0  0  0
  1  2  1  0
  2  3  2  0
  3  4  1  0
  4  5  2  0
  5  6  1  0
  6  7  2  0
  7  8  1  0
  8  9  2  0
  9 10  1  0
  9 11  1  0
 11 12  2  0
 12 13  1  0
  5 14  1  0
 14 15  2  0
 15  2  1  0
 12  6  1  0
  1 16  1  0
  1 17  1  0
  1 18  1  0
  3 19  1  0
  4 20  1  0
  7 21  1  0
  8 22  1  0
 11 23  1  0
 15 24  1  0
M  END
$$$$

     RDKit          3D

 24 25  0  0  0  0  0  0  0  0999 V2000
    1.1505   -2.5871    3.3326 C   0  0  0  0  0  0  0  0  0  0  0  0
    0.7455   -1.7176    2.1885 C   0  0  0  0  0  0  0  0  0  0  0  0
   -0.5151   -1.8158    1.5876 C   0  0  0  0  0  0  0  0  0  0  0  0
   -0.8546   -0.9888    0.5432 C   0  0  0  0  0  0  0  0  0  0  0  0
    0.0752   -0.0421    0.1013 C   0  0  0  0  0  0  0  0  0  0  0  0
   -0.2383    0.8761   -1.0292 C   0  0  0  0  0  0  0  0  0  0  0  0
    0.5595    0.8546   -2.1745 C   0  0  0  0  0  0  0  0  0  0  0  0
    0.2765    1.6601   -3.2715 C   0  0  0  0  0  0  0  0  0  0  0  0
   -0.8223    2.4964   -3.2038 C   0  0  0  0  0  0  0  0  0  0  0  0
   -1.1157    3.2796   -4.2635 F   0  0  0  0  0  0  0  0  0  0  0  0
   -1.6365    2.5712   -2.0872 C   0  0  0  0  0  0  0  0  0  0  0  0
   -1.3225    1.7673   -1.0172 C   0  0  0  0  0  0  0  0  0  0  0  0
   -2.3027    1.9202    0.4241 Cl  0  0  0  0  0  0  0  0  0  0  0  0
    1.2834    0.0569    0.6473 N   0  0  0  0  0  0  0  0  0  0  0  0
    1.6016   -0.7430    1.6533 C   0  0  0  0  0  0  0  0  0  0  0  0
    0.5814   -2.3370    4.2272 H   0  0  0  0  0  0  0  0  0  0  0  0
    0.9464   -3.6331    3.1186 H   0  0  0  0  0  0  0  0  0  0  0  0
    2.2116   -2.4754    3.5633 H   0  0  0  0  0  0  0  0  0  0  0  0
   -1.2151   -2.5591    1.9500 H   0  0  0  0  0  0  0  0  0  0  0  0
   -1.8252   -1.0412    0.0583 H   0  0  0  0  0  0  0  0  0  0  0  0
    1.4200    0.2025   -2.1914 H   0  0  0  0  0  0  0  0  0  0  0  0
    0.8921    1.6328   -4.1621 H   0  0  0  0  0  0  0  0  0  0  0  0
   -2.4912    3.2404   -2.0674 H   0  0  0  0  0  0  0  0  0  0  0  0
    2.5957   -0.6178    2.0723 H   0  0  0  0  0  0  0  0  0  0  0  0
  1  2  1  0
  2  3  2  0
  3  4  1  0
  4  5  2  0
  5  6  1  0
  6  7  2  0
  7  8  1  0
  8  9  2  0
  9 10  1  0
  9 11  1  0
 11 12  2  0
 12 13  1  0
  5 14  1  0
 14 15  2  0
 15  2  1  0
 12  6  1  0
  1 16  1  0
  1 17  1  0
  1 18  1  0
  3 19  1  0
  4 20  1  0
  7 21  1  0
  8 22  1  0
 11 23  1  0
 15 24  1  0
M  END
$$$$

     RDKit          3D

 24 25  0  0  0  0  0  0  0  0999 V2000
    2.9470   -3.1575    0.6771 C   0  0  0  0  0  0  0  0  0  0  0  0
    1.9226   -2.1021    0.4278 C   0  0  0  0  0  0  0  0  0  0  0  0
    0.6343   -2.3887   -0.0321 C   0  0  0  0  0  0  0  0  0  0  0  0
   -0.2759   -1.3762   -0.2283 C   0  0  0  0  0  0  0  0  0  0  0  0
    0.1116   -0.0599    0.0387 C   0  0  0  0  0  0  0  0  0  0  0  0
   -0.8301    1.0753   -0.1755 C   0  0  0  0  0  0  0  0  0  0  0  0
   -0.5149    2.0809   -1.0927 C   0  0  0  0  0  0  0  0  0  0  0  0
   -1.3790    3.1440   -1.3312 C   0  0  0  0  0  0  0  0  0  0  0  0
   -2.5736    3.1858   -0.6384 C   0  0  0  0  0  0  0  0  0  0  0  0
   -3.4231    4.2113   -0.8621 F   0  0  0  0  0  0  0  0  0  0  0  0
   -2.9351    2.2190    0.2844 C   0  0  0  0  0  0  0  0  0  0  0  0
   -2.0552    1.1856    0.5017 C   0  0  0  0  0  0  0  0  0  0  0  0
   -2.4930   -0.0098    1.7041 Cl  0  0  0  0  0  0  0  0  0  0  0  0
    1.3373    0.2337    0.4641 N   0  0  0  0  0  0  0  0  0  0  0  0
    2.2028   -0.7455    0.6619 C   0  0  0  0  0  0  0  0  0  0  0  0
    3.0983   -3.3014    1.7448 H   0  0  0  0  0  0  0  0  0  0  0  0
    2.6402   -4.1105    0.2469 H   0  0  0  0  0  0  0  0  0  0  0  0
    3.9097   -2.8740    0.2518 H   0  0  0  0  0  0  0  0  0  0  0  0
    0.3626   -3.4144   -0.2467 H   0  0  0  0  0  0  0  0  0  0  0  0
   -1.2878   -1.5694   -0.5725 H   0  0  0  0  0  0  0  0  0  0  0  0
    0.4266    2.0270   -1.6192 H   0  0  0  0  0  0  0  0  0  0  0  0
   -1.1320    3.9200   -2.0465 H   0  0  0  0  0  0  0  0  0  0  0  0
   -3.8792    2.2843    0.8157 H   0  0  0  0  0  0  0  0  0  0  0  0
    3.1860   -0.4577    1.0263 H   0  0  0  0  0  0  0  0  0  0  0  0
  1  2  1  0
  2  3  2  0
  3  4  1  0
  4  5  2  0
  5  6  1  0
  6  7  2  0
  7  8  1  0
  8  9  2  0
  9 10  1  0
  9 11  1  0
 11 12  2  0
 12 13  1  0
  5 14  1  0
 14 15  2  0
 15  2  1  0
 12  6  1  0
  1 16  1  0
  1 17  1  0
  1 18  1  0
  3 19  1  0
  4 20  1  0
  7 21  1  0
  8 22  1  0
 11 23  1  0
 15 24  1  0
M  END
$$$$

     RDKit          3D

 24 25  0  0  0  0  0  0  0  0999 V2000
   -4.1326    1.3076    0.5767 C   0  0  0  0  0  0  0  0  0  0  0  0
   -2.7359    0.8315    0.3525 C   0  0  0  0  0  0  0  0  0  0  0  0
   -2.1160    0.8878   -0.8981 C   0  0  0  0  0  0  0  0  0  0  0  0
   -0.8169    0.4591   -1.0527 C   0  0  0  0  0  0  0  0  0  0  0  0
   -0.1320   -0.0314    0.0570 C   0  0  0  0  0  0  0  0  0  0  0  0
    1.2927   -0.4520   -0.0728 C   0  0  0  0  0  0  0  0  0  0  0  0
    2.2516    0.4926   -0.4613 C   0  0  0  0  0  0  0  0  0  0  0  0
    3.5921    0.1628   -0.5788 C   0  0  0  0  0  0  0  0  0  0  0  0
    3.9714   -1.1343   -0.3058 C   0  0  0  0  0  0  0  0  0  0  0  0
    5.2752   -1.4693   -0.4122 F   0  0  0  0  0  0  0  0  0  0  0  0
    3.0678   -2.1137    0.0704 C   0  0  0  0  0  0  0  0  0  0  0  0
    1.7411   -1.7542    0.1714 C   0  0  0  0  0  0  0  0  0  0  0  0
    0.5971   -3.0029    0.6002 Cl  0  0  0  0  0  0  0  0  0  0  0  0
   -0.7012   -0.0915    1.2590 N   0  0  0  0  0  0  0  0  0  0  0  0
   -1.9548    0.3156    1.3991 C   0  0  0  0  0  0  0  0  0  0  0  0
   -4.6707    1.4190   -0.3640 H   0  0  0  0  0  0  0  0  0  0  0  0
   -4.6854    0.6151    1.2146 H   0  0  0  0  0  0  0  0  0  0  0  0
   -4.1350    2.2739    1.0749 H   0  0  0  0  0  0  0  0  0  0  0  0
   -2.6685    1.2676   -1.7468 H   0  0  0  0  0  0  0  0  0  0  0  0
   -0.3153    0.4957   -2.0112 H   0  0  0  0  0  0  0  0  0  0  0  0
    1.9230    1.4956   -0.6766 H   0  0  0  0  0  0  0  0  0  0  0  0
    4.3283    0.9038   -0.8688 H   0  0  0  0  0  0  0  0  0  0  0  0
    3.4047   -3.1231    0.2745 H   0  0  0  0  0  0  0  0  0  0  0  0
   -2.3805    0.2447    2.3987 H   0  0  0  0  0  0  0  0  0  0  0  0
  1  2  1  0
  2  3  2  0
  3  4  1  0
  4  5  2  0
  5  6  1  0
  6  7  2  0
  7  8  1  0
  8  9  2  0
  9 10  1  0
  9 11  1  0
 11 12  2  0
 12 13  1  0
  5 14  1  0
 14 15  2  0
 15  2  1  0
 12  6  1  0
  1 16  1  0
  1 17  1  0
  1 18  1  0
  3 19  1  0
  4 20  1  0
  7 21  1  0
  8 22  1  0
 11 23  1  0
 15 24  1  0
M  END
$$$$

     RDKit          3D

 24 25  0  0  0  0  0  0  0  0999 V2000
   -2.6050    0.7308   -3.4373 C   0  0  0  0  0  0  0  0  0  0  0  0
   -1.7080    0.4611   -2.2755 C   0  0  0  0  0  0  0  0  0  0  0  0
   -1.2961   -0.8335   -1.9399 C   0  0  0  0  0  0  0  0  0  0  0  0
   -0.4849   -1.0453   -0.8512 C   0  0  0  0  0  0  0  0  0  0  0  0
   -0.0793    0.0510   -0.0840 C   0  0  0  0  0  0  0  0  0  0  0  0
    0.8156   -0.1086    1.0980 C   0  0  0  0  0  0  0  0  0  0  0  0
    2.0262    0.5883    1.1491 C   0  0  0  0  0  0  0  0  0  0  0  0
    2.9027    0.4515    2.2192 C   0  0  0  0  0  0  0  0  0  0  0  0
    2.5416   -0.3894    3.2544 C   0  0  0  0  0  0  0  0  0  0  0  0
    3.3824   -0.5390    4.2988 F   0  0  0  0  0  0  0  0  0  0  0  0
    1.3507   -1.0935    3.2636 C   0  0  0  0  0  0  0  0  0  0  0  0
    0.5110   -0.9422    2.1855 C   0  0  0  0  0  0  0  0  0  0  0  0
   -1.0168   -1.7950    2.2309 Cl  0  0  0  0  0  0  0  0  0  0  0  0
   -0.4560    1.2902   -0.3926 N   0  0  0  0  0  0  0  0  0  0  0  0
   -1.2428    1.4844   -1.4369 C   0  0  0  0  0  0  0  0  0  0  0  0
   -2.3391    0.1058   -4.2859 H   0  0  0  0  0  0  0  0  0  0  0  0
   -2.5619    1.7788   -3.7383 H   0  0  0  0  0  0  0  0  0  0  0  0
   -3.6395    0.4971   -3.1836 H   0  0  0  0  0  0  0  0  0  0  0  0
   -1.6253   -1.6643   -2.5513 H   0  0  0  0  0  0  0  0  0  0  0  0
   -0.1612   -2.0414   -0.5630 H   0  0  0  0  0  0  0  0  0  0  0  0
    2.2739    1.2486    0.3326 H   0  0  0  0  0  0  0  0  0  0  0  0
    3.8425    0.9891    2.2478 H   0  0  0  0  0  0  0  0  0  0  0  0
    1.0966   -1.7390    4.0964 H   0  0  0  0  0  0  0  0  0  0  0  0
   -1.5273    2.5145   -1.6367 H   0  0  0  0  0  0  0  0  0  0  0  0
  1  2  1  0
  2  3  2  0
  3  4  1  0
  4  5  2  0
  5  6  1  0
  6  7  2  0
  7  8  1  0
  8  9  2  0
  9 10  1  0
  9 11  1  0
 11 12  2  0
 12 13  1  0
  5 14  1  0
 14 15  2  0
 15  2  1  0
 12  6  1  0
  1 16  1  0
  1 17  1  0
  1 18  1  0
  3 19  1  0
  4 20  1  0
  7 21  1  0
  8 22  1  0
 11 23  1  0
 15 24  1  0
M  END
$$$$

     RDKit          3D

 24 25  0  0  0  0  0  0  0  0999 V2000
   -2.0092    2.9518    2.5185 C   0  0  0  0  0  0  0  0  0  0  0  0
   -1.3210    1.9786    1.6212 C   0  0  0  0  0  0  0  0  0  0  0  0
   -0.4516    2.3681    0.5976 C   0  0  0  0  0  0  0  0  0  0  0  0
    0.1642    1.4228   -0.1898 C   0  0  0  0  0  0  0  0  0  0  0  0
   -0.0935    0.0722    0.0518 C   0  0  0  0  0  0  0  0  0  0  0  0
    0.5736   -1.0030   -0.7365 C   0  0  0  0  0  0  0  0  0  0  0  0
    1.3822   -1.9300   -0.0765 C   0  0  0  0  0  0  0  0  0  0  0  0
    2.0314   -2.9478   -0.7642 C   0  0  0  0  0  0  0  0  0  0  0  0
    1.8526   -3.0322   -2.1321 C   0  0  0  0  0  0  0  0  0  0  0  0
    2.4773   -4.0191   -2.8093 F   0  0  0  0  0  0  0  0  0  0  0  0
    1.0590   -2.1461   -2.8380 C   0  0  0  0  0  0  0  0  0  0  0  0
    0.4360   -1.1475   -2.1269 C   0  0  0  0  0  0  0  0  0  0  0  0
   -0.5936   -0.0445   -3.0141 Cl  0  0  0  0  0  0  0  0  0  0  0  0
   -0.9187   -0.3188    1.0233 N   0  0  0  0  0  0  0  0  0  0  0  0
   -1.5080    0.5947    1.7728 C   0  0  0  0  0  0  0  0  0  0  0  0
   -1.7970    3.9809    2.2220 H   0  0  0  0  0  0  0  0  0  0  0  0
   -3.0875    2.8035    2.5067 H   0  0  0  0  0  0  0  0  0  0  0  0
   -1.6849    2.8234    3.5500 H   0  0  0  0  0  0  0  0  0  0  0  0
   -0.2601    3.4194    0.4341 H   0  0  0  0  0  0  0  0  0  0  0  0
    0.8375    1.7009   -0.9973 H   0  0  0  0  0  0  0  0  0  0  0  0
    1.4917   -1.8464    0.9951 H   0  0  0  0  0  0  0  0  0  0  0  0
    2.6630   -3.6608   -0.2489 H   0  0  0  0  0  0  0  0  0  0  0  0
    0.9334   -2.2480   -3.9099 H   0  0  0  0  0  0  0  0  0  0  0  0
   -2.1767    0.2279    2.5503 H   0  0  0  0  0  0  0  0  0  0  0  0
  1  2  1  0
  2  3  2  0
  3  4  1  0
  4  5  2  0
  5  6  1  0
  6  7  2  0
  7  8  1  0
  8  9  2  0
  9 10  1  0
  9 11  1  0
 11 12  2  0
 12 13  1  0
  5 14  1  0
 14 15  2  0
 15  2  1  0
 12  6  1  0
  1 16  1  0
  1 17  1  0
  1 18  1  0
  3 19  1  0
  4 20  1  0
  7 21  1  0
  8 22  1  0
 11 23  1  0
 15 24  1  0
M  END
$$$$

     RDKit          3D

 24 25  0  0  0  0  0  0  0  0999 V2000
    0.8127   -3.0559    3.0245 C   0  0  0  0  0  0  0  0  0  0  0  0
    0.5195   -2.0320    1.9785 C   0  0  0  0  0  0  0  0  0  0  0  0
   -0.6830   -2.0075    1.2631 C   0  0  0  0  0  0  0  0  0  0  0  0
   -0.9162   -1.0255    0.3291 C   0  0  0  0  0  0  0  0  0  0  0  0
    0.0587   -0.0514    0.1109 C   0  0  0  0  0  0  0  0  0  0  0  0
   -0.1552    1.0094   -0.9145 C   0  0  0  0  0  0  0  0  0  0  0  0
   -0.5060    0.6424   -2.2241 C   0  0  0  0  0  0  0  0  0  0  0  0
   -0.6982    1.5865   -3.2171 C   0  0  0  0  0  0  0  0  0  0  0  0
   -0.5487    2.9172   -2.8902 C   0  0  0  0  0  0  0  0  0  0  0  0
   -0.7354    3.8494   -3.8479 F   0  0  0  0  0  0  0  0  0  0  0  0
   -0.2115    3.3412   -1.6153 C   0  0  0  0  0  0  0  0  0  0  0  0
   -0.0262    2.3776   -0.6483 C   0  0  0  0  0  0  0  0  0  0  0  0
    0.3630    2.9338    0.9615 Cl  0  0  0  0  0  0  0  0  0  0  0  0
    1.2129   -0.0660    0.7743 N   0  0  0  0  0  0  0  0  0  0  0  0
    1.4316   -1.0102    1.6754 C   0  0  0  0  0  0  0  0  0  0  0  0
    0.3203   -4.0017    2.8022 H   0  0  0  0  0  0  0  0  0  0  0  0
    0.4439   -2.7249    3.9930 H   0  0  0  0  0  0  0  0  0  0  0  0
    1.8843   -3.2302    3.1192 H   0  0  0  0  0  0  0  0  0  0  0  0
   -1.4316   -2.7682    1.4509 H   0  0  0  0  0  0  0  0  0  0  0  0
   -1.8363   -0.9885   -0.2420 H   0  0  0  0  0  0  0  0  0  0  0  0
   -0.6202   -0.4059   -2.4500 H   0  0  0  0  0  0  0  0  0  0  0  0
   -0.9599    1.2925   -4.2277 H   0  0  0  0  0  0  0  0  0  0  0  0
   -0.1090    4.3977   -1.3944 H   0  0  0  0  0  0  0  0  0  0  0  0
    2.3907   -0.9798    2.1893 H   0  0  0  0  0  0  0  0  0  0  0  0
  1  2  1  0
  2  3  2  0
  3  4  1  0
  4  5  2  0
  5  6  1  0
  6  7  2  0
  7  8  1  0
  8  9  2  0
  9 10  1  0
  9 11  1  0
 11 12  2  0
 12 13  1  0
  5 14  1  0
 14 15  2  0
 15  2  1  0
 12  6  1  0
  1 16  1  0
  1 17  1  0
  1 18  1  0
  3 19  1  0
  4 20  1  0
  7 21  1  0
  8 22  1  0
 11 23  1  0
 15 24  1  0
M  END
$$$$

     RDKit          3D

 24 25  0  0  0  0  0  0  0  0999 V2000
   -2.6109   -2.0354   -2.8576 C   0  0  0  0  0  0  0  0  0  0  0  0
   -1.7131   -1.3422   -1.8897 C   0  0  0  0  0  0  0  0  0  0  0  0
   -0.3216   -1.3350   -2.0440 C   0  0  0  0  0  0  0  0  0  0  0  0
    0.4766   -0.6893   -1.1295 C   0  0  0  0  0  0  0  0  0  0  0  0
   -0.1194   -0.0508   -0.0435 C   0  0  0  0  0  0  0  0  0  0  0  0
    0.7275    0.6637    0.9540 C   0  0  0  0  0  0  0  0  0  0  0  0
    1.5037    1.7595    0.5499 C   0  0  0  0  0  0  0  0  0  0  0  0
    2.2809    2.4715    1.4508 C   0  0  0  0  0  0  0  0  0  0  0  0
    2.2866    2.0678    2.7683 C   0  0  0  0  0  0  0  0  0  0  0  0
    3.0341    2.7562    3.6582 F   0  0  0  0  0  0  0  0  0  0  0  0
    1.5584    0.9795    3.2213 C   0  0  0  0  0  0  0  0  0  0  0  0
    0.8006    0.2895    2.3003 C   0  0  0  0  0  0  0  0  0  0  0  0
   -0.0800   -1.1121    2.8599 Cl  0  0  0  0  0  0  0  0  0  0  0  0
   -1.4407   -0.0345    0.1183 N   0  0  0  0  0  0  0  0  0  0  0  0
   -2.2053   -0.6626   -0.7663 C   0  0  0  0  0  0  0  0  0  0  0  0
   -2.4364   -3.1085   -2.8477 H   0  0  0  0  0  0  0  0  0  0  0  0
   -2.4151   -1.7035   -3.8740 H   0  0  0  0  0  0  0  0  0  0  0  0
   -3.6626   -1.8546   -2.6278 H   0  0  0  0  0  0  0  0  0  0  0  0
    0.1181   -1.8510   -2.8884 H   0  0  0  0  0  0  0  0  0  0  0  0
    1.5541   -0.6561   -1.2280 H   0  0  0  0  0  0  0  0  0  0  0  0
    1.4883    2.0432   -0.4924 H   0  0  0  0  0  0  0  0  0  0  0  0
    2.8627    3.3317    1.1367 H   0  0  0  0  0  0  0  0  0  0  0  0
    1.5922    0.6957    4.2665 H   0  0  0  0  0  0  0  0  0  0  0  0
   -3.2787   -0.6225   -0.5952 H   0  0  0  0  0  0  0  0  0  0  0  0
  1  2  1  0
  2  3  2  0
  3  4  1  0
  4  5  2  0
  5  6  1  0
  6  7  2  0
  7  8  1  0
  8  9  2  0
  9 10  1  0
  9 11  1  0
 11 12  2  0
 12 13  1  0
  5 14  1  0
 14 15  2  0
 15  2  1  0
 12  6  1  0
  1 16  1  0
  1 17  1  0
  1 18  1  0
  3 19  1  0
  4 20  1  0
  7 21  1  0
  8 22  1  0
 11 23  1  0
 15 24  1  0
M  END
$$$$
