
     RDKit          3D

 24 25  0  0  0  0  0  0  0  0999 V2000
   -0.9958    3.7617   -1.9885 C   0  0  0  0  0  0  0  0  0  0  0  0
   -0.6473    2.4919   -1.2894 C   0  0  0  0  0  0  0  0  0  0  0  0
    0.5103    2.3476   -0.5217 C   0  0  0  0  0  0  0  0  0  0  0  0
    0.7970    1.1472    0.0874 C   0  0  0  0  0  0  0  0  0  0  0  0
   -0.0908    0.0825   -0.0608 C   0  0  0  0  0  0  0  0  0  0  0  0
    0.2077   -1.2300    0.5754 C   0  0  0  0  0  0  0  0  0  0  0  0
    1.3743   -1.9165    0.2127 C   0  0  0  0  0  0  0  0  0  0  0  0
    1.7021   -3.1420    0.7719 C   0  0  0  0  0  0  0  0  0  0  0  0
    0.8477   -3.6815    1.7109 C   0  0  0  0  0  0  0  0  0  0  0  0
    1.1537   -4.8717    2.2616 F   0  0  0  0  0  0  0  0  0  0  0  0
   -0.3168   -3.0436    2.1110 C   0  0  0  0  0  0  0  0  0  0  0  0
   -0.6098   -1.8270    1.5455 C   0  0  0  0  0  0  0  0  0  0  0  0
   -2.1708   -0.9208    2.1671 Br  0  0  0  0  0  0  0  0  0  0  0  0
   -1.1961    0.1989   -0.7965 N   0  0  0  0  0  0  0  0  0  0  0  0
   -1.4664    1.3565   -1.3801 C   0  0  0  0  0  0  0  0  0  0  0  0
   -2.0586    3.9896   -1.8845 H   0  0  0  0  0  0  0  0  0  0  0  0
   -0.4162    4.5990   -1.5904 H   0  0  0  0  0  0  0  0  0  0  0  0
   -0.7892    3.6936   -3.0522 H   0  0  0  0  0  0  0  0  0  0  0  0
    1.1791    3.1911   -0.4015 H   0  0  0  0  0  0  0  0  0  0  0  0
    1.6990    1.0022    0.6700 H   0  0  0  0  0  0  0  0  0  0  0  0
    2.0238   -1.4668   -0.5242 H   0  0  0  0  0  0  0  0  0  0  0  0
    2.6078   -3.6648    0.4872 H   0  0  0  0  0  0  0  0  0  0  0  0
   -0.9597   -3.5029    2.8533 H   0  0  0  0  0  0  0  0  0  0  0  0
   -2.3851    1.4058   -1.9645 H   0  0  0  0  0  0  0  0  0  0  0  0
  1  2  1  0
  2  3  2  0
  3  4  1  0
  4  5  2  0
  5  6  1  0
  6  7  2  0
  7  8  1  0
  8  9  2  0
  9 10  1  0
  9 11  1  0
 11 12  2  0
 12 13  1  0
  5 14  1  0
 14 15  2  0
 15  2  1  0
 12  6  1  0
  1 16  1  0
  1 17  1  0
  1 18  1  0
  3 19  1  0
  4 20  1  0
  7 21  1  0
  8 22  1  0
 11 23  1  0
 15 24  1  0
M  END
$$$$

     RDKit          3D

 24 25  0  0  0  0  0  0  0  0999 V2000
    3.8850   -1.9450    0.4609 C   0  0  0  0  0  0  0  0  0  0  0  0
    2.5681   -1.2663    0.2843 C   0  0  0  0  0  0  0  0  0  0  0  0
    2.1203   -0.8241   -0.9659 C   0  0  0  0  0  0  0  0  0  0  0  0
    0.8954   -0.2108   -1.0886 C   0  0  0  0  0  0  0  0  0  0  0  0
    0.1045   -0.0426    0.0536 C   0  0  0  0  0  0  0  0  0  0  0  0
   -1.2333    0.6061   -0.0198 C   0  0  0  0  0  0  0  0  0  0  0  0
   -1.4359    1.8408    0.5987 C   0  0  0  0  0  0  0  0  0  0  0  0
   -2.6672    2.4878    0.5486 C   0  0  0  0  0  0  0  0  0  0  0  0
   -3.6985    1.8801   -0.1408 C   0  0  0  0  0  0  0  0  0  0  0  0
   -4.8955    2.4961   -0.1998 F   0  0  0  0  0  0  0  0  0  0  0  0
   -3.5524    0.6532   -0.7677 C   0  0  0  0  0  0  0  0  0  0  0  0
   -2.3283    0.0370   -0.6933 C   0  0  0  0  0  0  0  0  0  0  0  0
   -2.1456   -1.6720   -1.5280 Br  0  0  0  0  0  0  0  0  0  0  0  0
    0.5279   -0.4293    1.2531 N   0  0  0  0  0  0  0  0  0  0  0  0
    1.7056   -1.0242    1.3623 C   0  0  0  0  0  0  0  0  0  0  0  0
    3.9769   -2.3931    1.4522 H   0  0  0  0  0  0  0  0  0  0  0  0
    4.0230   -2.7252   -0.2866 H   0  0  0  0  0  0  0  0  0  0  0  0
    4.7034   -1.2420    0.3277 H   0  0  0  0  0  0  0  0  0  0  0  0
    2.7531   -0.9659   -1.8346 H   0  0  0  0  0  0  0  0  0  0  0  0
    0.5192    0.1340   -2.0490 H   0  0  0  0  0  0  0  0  0  0  0  0
   -0.6129    2.2910    1.1335 H   0  0  0  0  0  0  0  0  0  0  0  0
   -2.8210    3.4452    1.0309 H   0  0  0  0  0  0  0  0  0  0  0  0
   -4.3892    0.2069   -1.2926 H   0  0  0  0  0  0  0  0  0  0  0  0
    1.9973   -1.3376    2.3608 H   0  0  0  0  0  0  0  0  0  0  0  0
  1  2  1  0
  2  3  2  0
  3  4  1  0
  4  5  2  0
  5  6  1  0
  6  7  2  0
  7  8  1  0
  8  9  2  0
  9 10  1  0
  9 11  1  0
 11 12  2  0
 12 13  1  0
  5 14  1  0
 14 15  2  0
 15  2  1  0
 12  6  1  0
  1 16  1  0
  1 17  1  0
  1 18  1  0
  3 19  1  0
  4 20  1  0
  7 21  1  0
  8 22  1  0
 11 23  1  0
 15 24  1  0
M  END
$$$$

     RDKit          3D

 24 25  0  0  0  0  0  0  0  0999 V2000
   -4.3291    0.5510   -0.1907 C   0  0  0  0  0  0  0  0  0  0  0  0
   -2.8546    0.3291   -0.1617 C   0  0  0  0  0  0  0  0  0  0  0  0
   -2.0808    0.2570   -1.3234 C   0  0  0  0  0  0  0  0  0  0  0  0
   -0.7197    0.0785   -1.2407 C   0  0  0  0  0  0  0  0  0  0  0  0
   -0.1247   -0.0387    0.0191 C   0  0  0  0  0  0  0  0  0  0  0  0
    1.3463   -0.1932    0.1822 C   0  0  0  0  0  0  0  0  0  0  0  0
    2.0385    0.7360    0.9635 C   0  0  0  0  0  0  0  0  0  0  0  0
    3.4173    0.6736    1.1217 C   0  0  0  0  0  0  0  0  0  0  0  0
    4.1022   -0.3505    0.4969 C   0  0  0  0  0  0  0  0  0  0  0  0
    5.4386   -0.4205    0.6417 F   0  0  0  0  0  0  0  0  0  0  0  0
    3.4651   -1.3100   -0.2728 C   0  0  0  0  0  0  0  0  0  0  0  0
    2.1048   -1.2185   -0.4143 C   0  0  0  0  0  0  0  0  0  0  0  0
    1.2457   -2.6020   -1.4178 Br  0  0  0  0  0  0  0  0  0  0  0  0
   -0.8495    0.0310    1.1341 N   0  0  0  0  0  0  0  0  0  0  0  0
   -2.1553    0.2050    1.0473 C   0  0  0  0  0  0  0  0  0  0  0  0
   -4.7683    0.1670   -1.1146 H   0  0  0  0  0  0  0  0  0  0  0  0
   -4.8164    0.0675    0.6579 H   0  0  0  0  0  0  0  0  0  0  0  0
   -4.5615    1.6113   -0.1408 H   0  0  0  0  0  0  0  0  0  0  0  0
   -2.5652    0.3498   -2.2883 H   0  0  0  0  0  0  0  0  0  0  0  0
   -0.0964    0.0205   -2.1279 H   0  0  0  0  0  0  0  0  0  0  0  0
    1.4762    1.5151    1.4567 H   0  0  0  0  0  0  0  0  0  0  0  0
    3.9489    1.4044    1.7203 H   0  0  0  0  0  0  0  0  0  0  0  0
    4.0386   -2.1041   -0.7374 H   0  0  0  0  0  0  0  0  0  0  0  0
   -2.7009    0.2407    1.9890 H   0  0  0  0  0  0  0  0  0  0  0  0
  1  2  1  0
  2  3  2  0
  3  4  1  0
  4  5  2  0
  5  6  1  0
  6  7  2  0
  7  8  1  0
  8  9  2  0
  9 10  1  0
  9 11  1  0
 11 12  2  0
 12 13  1  0
  5 14  1  0
 14 15  2  0
 15  2  1  0
 12  6  1  0
  1 16  1  0
  1 17  1  0
  1 18  1  0
  3 19  1  0
  4 20  1  0
  7 21  1  0
  8 22  1  0
 11 23  1  0
 15 24  1  0
M  END
$$$$

     RDKit          3D

 24 25  0  0  0  0  0  0  0  0999 V2000
    0.0278    4.0216   -1.7034 C   0  0  0  0  0  0  0  0  0  0  0  0
   -0.0002    2.6701   -1.0722 C   0  0  0  0  0  0  0  0  0  0  0  0
   -1.0872    2.2015   -0.3291 C   0  0  0  0  0  0  0  0  0  0  0  0
   -1.0725    0.9307    0.1960 C   0  0  0  0  0  0  0  0  0  0  0  0
    0.0493    0.1220   -0.0121 C   0  0  0  0  0  0  0  0  0  0  0  0
    0.1120   -1.2751    0.4958 C   0  0  0  0  0  0  0  0  0  0  0  0
    0.3031   -2.3176   -0.4133 C   0  0  0  0  0  0  0  0  0  0  0  0
    0.3301   -3.6449   -0.0034 C   0  0  0  0  0  0  0  0  0  0  0  0
    0.1790   -3.9194    1.3422 C   0  0  0  0  0  0  0  0  0  0  0  0
    0.1990   -5.2037    1.7506 F   0  0  0  0  0  0  0  0  0  0  0  0
    0.0035   -2.9238    2.2881 C   0  0  0  0  0  0  0  0  0  0  0  0
   -0.0230   -1.6235    1.8514 C   0  0  0  0  0  0  0  0  0  0  0  0
   -0.2054   -0.2634    3.1807 Br  0  0  0  0  0  0  0  0  0  0  0  0
    1.0927    0.5567   -0.7163 N   0  0  0  0  0  0  0  0  0  0  0  0
    1.0715    1.7763   -1.2210 C   0  0  0  0  0  0  0  0  0  0  0  0
   -0.1960    3.9533   -2.7658 H   0  0  0  0  0  0  0  0  0  0  0  0
    1.0127    4.4805   -1.6073 H   0  0  0  0  0  0  0  0  0  0  0  0
   -0.7129    4.6860   -1.2500 H   0  0  0  0  0  0  0  0  0  0  0  0
   -1.9443    2.8471   -0.1783 H   0  0  0  0  0  0  0  0  0  0  0  0
   -1.9019    0.5421    0.7822 H   0  0  0  0  0  0  0  0  0  0  0  0
    0.4371   -2.0726   -1.4569 H   0  0  0  0  0  0  0  0  0  0  0  0
    0.4702   -4.4498   -0.7140 H   0  0  0  0  0  0  0  0  0  0  0  0
   -0.0988   -3.1797    3.3362 H   0  0  0  0  0  0  0  0  0  0  0  0
    1.9540    2.0855   -1.7801 H   0  0  0  0  0  0  0  0  0  0  0  0
  1  2  1  0
  2  3  2  0
  3  4  1  0
  4  5  2  0
  5  6  1  0
  6  7  2  0
  7  8  1  0
  8  9  2  0
  9 10  1  0
  9 11  1  0
 11 12  2  0
 12 13  1  0
  5 14  1  0
 14 15  2  0
 15  2  1  0
 12  6  1  0
  1 16  1  0
  1 17  1  0
  1 18  1  0
  3 19  1  0
  4 20  1  0
  7 21  1  0
  8 22  1  0
 11 23  1  0
 15 24  1  0
M  END
$$$$

     RDKit          3D

 24 25  0  0  0  0  0  0  0  0999 V2000
    0.9308    4.2649    0.2277 C   0  0  0  0  0  0  0  0  0  0  0  0
    0.6074    2.8093    0.1935 C   0  0  0  0  0  0  0  0  0  0  0  0
    1.3259    1.8575    0.9197 C   0  0  0  0  0  0  0  0  0  0  0  0
    0.9982    0.5238    0.8358 C   0  0  0  0  0  0  0  0  0  0  0  0
   -0.0621    0.1329    0.0193 C   0  0  0  0  0  0  0  0  0  0  0  0
   -0.3910   -1.3109   -0.1335 C   0  0  0  0  0  0  0  0  0  0  0  0
    0.6204   -2.1978   -0.5340 C   0  0  0  0  0  0  0  0  0  0  0  0
    0.3751   -3.5470   -0.7185 C   0  0  0  0  0  0  0  0  0  0  0  0
   -0.8991   -4.0168   -0.4825 C   0  0  0  0  0  0  0  0  0  0  0  0
   -1.1516   -5.3280   -0.6577 F   0  0  0  0  0  0  0  0  0  0  0  0
   -1.9333   -3.1895   -0.0699 C   0  0  0  0  0  0  0  0  0  0  0  0
   -1.6605   -1.8548    0.1035 C   0  0  0  0  0  0  0  0  0  0  0  0
   -3.0817   -0.7538    0.7451 Br  0  0  0  0  0  0  0  0  0  0  0  0
   -0.7579    1.0296   -0.6789 N   0  0  0  0  0  0  0  0  0  0  0  0
   -0.4444    2.3110   -0.5896 C   0  0  0  0  0  0  0  0  0  0  0  0
    1.3402    4.5959   -0.7254 H   0  0  0  0  0  0  0  0  0  0  0  0
    0.0327    4.8581    0.4085 H   0  0  0  0  0  0  0  0  0  0  0  0
    1.6605    4.4943    1.0048 H   0  0  0  0  0  0  0  0  0  0  0  0
    2.1429    2.1779    1.5535 H   0  0  0  0  0  0  0  0  0  0  0  0
    1.5436   -0.2352    1.3855 H   0  0  0  0  0  0  0  0  0  0  0  0
    1.6112   -1.8056   -0.6991 H   0  0  0  0  0  0  0  0  0  0  0  0
    1.1636   -4.2193   -1.0400 H   0  0  0  0  0  0  0  0  0  0  0  0
   -2.9214   -3.6001    0.1065 H   0  0  0  0  0  0  0  0  0  0  0  0
   -1.0493    3.0037   -1.1742 H   0  0  0  0  0  0  0  0  0  0  0  0
  1  2  1  0
  2  3  2  0
  3  4  1  0
  4  5  2  0
  5  6  1  0
  6  7  2  0
  7  8  1  0
  8  9  2  0
  9 10  1  0
  9 11  1  0
 11 12  2  0
 12 13  1  0
  5 14  1  0
 14 15  2  0
 15  2  1  0
 12  6  1  0
  1 16  1  0
  1 17  1  0
  1 18  1  0
  3 19  1  0
  4 20  1  0
  7 21  1  0
  8 22  1  0
 11 23  1  0
 15 24  1  0
M  END
$$$$

     RDKit          3D

 24 25  0  0  0  0  0  0  0  0999 V2000
   -0.9678   -1.1429   -4.1041 C   0  0  0  0  0  0  0  0  0  0  0  0
   -0.6052   -0.7848   -2.7012 C   0  0  0  0  0  0  0  0  0  0  0  0
    0.6463   -1.0587   -2.1452 C   0  0  0  0  0  0  0  0  0  0  0  0
    0.9272   -0.6864   -0.8491 C   0  0  0  0  0  0  0  0  0  0  0  0
   -0.0531   -0.0160   -0.1090 C   0  0  0  0  0  0  0  0  0  0  0  0
    0.1861    0.4141    1.2957 C   0  0  0  0  0  0  0  0  0  0  0  0
   -0.6502   -0.0646    2.3064 C   0  0  0  0  0  0  0  0  0  0  0  0
   -0.4431    0.2700    3.6400 C   0  0  0  0  0  0  0  0  0  0  0  0
    0.6099    1.1085    3.9502 C   0  0  0  0  0  0  0  0  0  0  0  0
    0.8250    1.4358    5.2391 F   0  0  0  0  0  0  0  0  0  0  0  0
    1.4530    1.6328    2.9842 C   0  0  0  0  0  0  0  0  0  0  0  0
    1.2237    1.2835    1.6784 C   0  0  0  0  0  0  0  0  0  0  0  0
    2.3623    2.0648    0.3553 Br  0  0  0  0  0  0  0  0  0  0  0  0
   -1.2582    0.2361   -0.6197 N   0  0  0  0  0  0  0  0  0  0  0  0
   -1.5189   -0.1261   -1.8620 C   0  0  0  0  0  0  0  0  0  0  0  0
   -1.1164   -0.2453   -4.7033 H   0  0  0  0  0  0  0  0  0  0  0  0
   -0.1842   -1.7436   -4.5720 H   0  0  0  0  0  0  0  0  0  0  0  0
   -1.8987   -1.7063   -4.1404 H   0  0  0  0  0  0  0  0  0  0  0  0
    1.3892   -1.5768   -2.7389 H   0  0  0  0  0  0  0  0  0  0  0  0
    1.8907   -0.8922   -0.3870 H   0  0  0  0  0  0  0  0  0  0  0  0
   -1.4824   -0.6946    2.0303 H   0  0  0  0  0  0  0  0  0  0  0  0
   -1.0824   -0.1185    4.4217 H   0  0  0  0  0  0  0  0  0  0  0  0
    2.2598    2.2980    3.2697 H   0  0  0  0  0  0  0  0  0  0  0  0
   -2.5126    0.1131   -2.2389 H   0  0  0  0  0  0  0  0  0  0  0  0
  1  2  1  0
  2  3  2  0
  3  4  1  0
  4  5  2  0
  5  6  1  0
  6  7  2  0
  7  8  1  0
  8  9  2  0
  9 10  1  0
  9 11  1  0
 11 12  2  0
 12 13  1  0
  5 14  1  0
 14 15  2  0
 15  2  1  0
 12  6  1  0
  1 16  1  0
  1 17  1  0
  1 18  1  0
  3 19  1  0
  4 20  1  0
  7 21  1  0
  8 22  1  0
 11 23  1  0
 15 24  1  0
M  END
$$$$

     RDKit          3D

 24 25  0  0  0  0  0  0  0  0999 V2000
   -2.1464    3.4572    1.5861 C   0  0  0  0  0  0  0  0  0  0  0  0
   -1.4353    2.2854    0.9992 C   0  0  0  0  0  0  0  0  0  0  0  0
   -0.5910    2.3961   -0.1098 C   0  0  0  0  0  0  0  0  0  0  0  0
    0.0672    1.2910   -0.5943 C   0  0  0  0  0  0  0  0  0  0  0  0
   -0.1161    0.0586    0.0408 C   0  0  0  0  0  0  0  0  0  0  0  0
    0.6086   -1.1621   -0.4062 C   0  0  0  0  0  0  0  0  0  0  0  0
    1.4805   -1.8016    0.4777 C   0  0  0  0  0  0  0  0  0  0  0  0
    2.2167   -2.9180    0.0962 C   0  0  0  0  0  0  0  0  0  0  0  0
    2.0552   -3.4010   -1.1880 C   0  0  0  0  0  0  0  0  0  0  0  0
    2.7648   -4.4800   -1.5712 F   0  0  0  0  0  0  0  0  0  0  0  0
    1.1911   -2.8165   -2.0997 C   0  0  0  0  0  0  0  0  0  0  0  0
    0.4854   -1.7128   -1.6939 C   0  0  0  0  0  0  0  0  0  0  0  0
   -0.7427   -0.9496   -2.9443 Br  0  0  0  0  0  0  0  0  0  0  0  0
   -0.9159   -0.0618    1.0986 N   0  0  0  0  0  0  0  0  0  0  0  0
   -1.5513    1.0026    1.5540 C   0  0  0  0  0  0  0  0  0  0  0  0
   -2.3505    4.2136    0.8248 H   0  0  0  0  0  0  0  0  0  0  0  0
   -1.5417    3.9301    2.3530 H   0  0  0  0  0  0  0  0  0  0  0  0
   -3.0919    3.1582    2.0437 H   0  0  0  0  0  0  0  0  0  0  0  0
   -0.4586    3.3635   -0.5812 H   0  0  0  0  0  0  0  0  0  0  0  0
    0.7120    1.3448   -1.4678 H   0  0  0  0  0  0  0  0  0  0  0  0
    1.5730   -1.4109    1.4791 H   0  0  0  0  0  0  0  0  0  0  0  0
    2.8984   -3.4051    0.7841 H   0  0  0  0  0  0  0  0  0  0  0  0
    1.0893   -3.2318   -3.0961 H   0  0  0  0  0  0  0  0  0  0  0  0
   -2.2007    0.8501    2.4151 H   0  0  0  0  0  0  0  0  0  0  0  0
  1  2  1  0
  2  3  2  0
  3  4  1  0
  4  5  2  0
  5  6  1  0
  6  7  2  0
  7  8  1  0
  8  9  2  0
  9 10  1  0
  9 11  1  0
 11 12  2  0
 12 13  1  0
  5 14  1  0
 14 15  2  0
 15  2  1  0
 12  6  1  0
  1 16  1  0
  1 17  1  0
  1 18  1  0
  3 19  1  0
  4 20  1  0
  7 21  1  0
  8 22  1  0
 11 23  1  0
 15 24  1  0
M  END
$$$$

     RDKit          3D

 24 25  0  0  0  0  0  0  0  0999 V2000
   -2.6761   -3.1898    1.3261 C   0  0  0  0  0  0  0  0  0  0  0  0
   -1.7889   -2.0744    0.8839 C   0  0  0  0  0  0  0  0  0  0  0  0
   -2.0104   -0.7425    1.2460 C   0  0  0  0  0  0  0  0  0  0  0  0
   -1.1520    0.2453    0.8233 C   0  0  0  0  0  0  0  0  0  0  0  0
   -0.0712   -0.0981    0.0072 C   0  0  0  0  0  0  0  0  0  0  0  0
    0.8999    0.9196   -0.4784 C   0  0  0  0  0  0  0  0  0  0  0  0
    2.2506    0.7728   -0.1584 C   0  0  0  0  0  0  0  0  0  0  0  0
    3.2006    1.7021   -0.5650 C   0  0  0  0  0  0  0  0  0  0  0  0
    2.7808    2.7878   -1.3099 C   0  0  0  0  0  0  0  0  0  0  0  0
    3.6930    3.6949   -1.7068 F   0  0  0  0  0  0  0  0  0  0  0  0
    1.4556    2.9792   -1.6620 C   0  0  0  0  0  0  0  0  0  0  0  0
    0.5418    2.0451   -1.2446 C   0  0  0  0  0  0  0  0  0  0  0  0
   -1.2705    2.2921   -1.8011 Br  0  0  0  0  0  0  0  0  0  0  0  0
    0.1577   -1.3656   -0.3402 N   0  0  0  0  0  0  0  0  0  0  0  0
   -0.6630   -2.3100    0.0791 C   0  0  0  0  0  0  0  0  0  0  0  0
   -2.2011   -3.7771    2.1096 H   0  0  0  0  0  0  0  0  0  0  0  0
   -2.8914   -3.8691    0.4994 H   0  0  0  0  0  0  0  0  0  0  0  0
   -3.6202   -2.8110    1.7232 H   0  0  0  0  0  0  0  0  0  0  0  0
   -2.8642   -0.4941    1.8639 H   0  0  0  0  0  0  0  0  0  0  0  0
   -1.3031    1.2874    1.0945 H   0  0  0  0  0  0  0  0  0  0  0  0
    2.5544   -0.0920    0.4129 H   0  0  0  0  0  0  0  0  0  0  0  0
    4.2462    1.5843   -0.3094 H   0  0  0  0  0  0  0  0  0  0  0  0
    1.1656    3.8407   -2.2529 H   0  0  0  0  0  0  0  0  0  0  0  0
   -0.4342   -3.3274   -0.2402 H   0  0  0  0  0  0  0  0  0  0  0  0
  1  2  1  0
  2  3  2  0
  3  4  1  0
  4  5  2  0
  5  6  1  0
  6  7  2  0
  7  8  1  0
  8  9  2  0
  9 10  1  0
  9 11  1  0
 11 12  2  0
 12 13  1  0
  5 14  1  0
 14 15  2  0
 15  2  1  0
 12  6  1  0
  1 16  1  0
  1 17  1  0
  1 18  1  0
  3 19  1  0
  4 20  1  0
  7 21  1  0
  8 22  1  0
 11 23  1  0
 15 24  1  0
M  END
$$$$

     RDKit          3D

 24 25  0  0  0  0  0  0  0  0999 V2000
    0.8155   -1.9148    3.8407 C   0  0  0  0  0  0  0  0  0  0  0  0
    0.5018   -1.2819    2.5271 C   0  0  0  0  0  0  0  0  0  0  0  0
   -0.5991   -1.6456    1.7485 C   0  0  0  0  0  0  0  0  0  0  0  0
   -0.8252   -1.0341    0.5373 C   0  0  0  0  0  0  0  0  0  0  0  0
    0.0590   -0.0448    0.0997 C   0  0  0  0  0  0  0  0  0  0  0  0
   -0.1493    0.6680   -1.1893 C   0  0  0  0  0  0  0  0  0  0  0  0
   -0.3115    2.0546   -1.1820 C   0  0  0  0  0  0  0  0  0  0  0  0
   -0.5350    2.7677   -2.3553 C   0  0  0  0  0  0  0  0  0  0  0  0
   -0.5907    2.0684   -3.5459 C   0  0  0  0  0  0  0  0  0  0  0  0
   -0.8149    2.7458   -4.6885 F   0  0  0  0  0  0  0  0  0  0  0  0
   -0.4253    0.6944   -3.6117 C   0  0  0  0  0  0  0  0  0  0  0  0
   -0.2044    0.0213   -2.4377 C   0  0  0  0  0  0  0  0  0  0  0  0
    0.0758   -1.8641   -2.5565 Br  0  0  0  0  0  0  0  0  0  0  0  0
    1.1056    0.3250    0.8388 N   0  0  0  0  0  0  0  0  0  0  0  0
    1.3201   -0.2715    1.9952 C   0  0  0  0  0  0  0  0  0  0  0  0
    0.0684   -2.6653    4.1104 H   0  0  0  0  0  0  0  0  0  0  0  0
    0.8523   -1.1696    4.6345 H   0  0  0  0  0  0  0  0  0  0  0  0
    1.7922   -2.3990    3.8121 H   0  0  0  0  0  0  0  0  0  0  0  0
   -1.2749   -2.4096    2.1103 H   0  0  0  0  0  0  0  0  0  0  0  0
   -1.6677   -1.3053   -0.0947 H   0  0  0  0  0  0  0  0  0  0  0  0
   -0.2551    2.5728   -0.2348 H   0  0  0  0  0  0  0  0  0  0  0  0
   -0.6637    3.8434   -2.3457 H   0  0  0  0  0  0  0  0  0  0  0  0
   -0.4695    0.1868   -4.5695 H   0  0  0  0  0  0  0  0  0  0  0  0
    2.1955    0.0572    2.5572 H   0  0  0  0  0  0  0  0  0  0  0  0
  1  2  1  0
  2  3  2  0
  3  4  1  0
  4  5  2  0
  5  6  1  0
  6  7  2  0
  7  8  1  0
  8  9  2  0
  9 10  1  0
  9 11  1  0
 11 12  2  0
 12 13  1  0
  5 14  1  0
 14 15  2  0
 15  2  1  0
 12  6  1  0
  1 16  1  0
  1 17  1  0
  1 18  1  0
  3 19  1  0
  4 20  1  0
  7 21  1  0
  8 22  1  0
 11 23  1  0
 15 24  1  0
M  END
$$$$

     RDKit          3D

 24 25  0  0  0  0  0  0  0  0999 V2000
   -0.9335    3.0254    3.0084 C   0  0  0  0  0  0  0  0  0  0  0  0
   -0.6332    1.9743    1.9947 C   0  0  0  0  0  0  0  0  0  0  0  0
   -0.9778    0.6331    2.1713 C   0  0  0  0  0  0  0  0  0  0  0  0
   -0.6762   -0.3009    1.2037 C   0  0  0  0  0  0  0  0  0  0  0  0
   -0.0167    0.1149    0.0495 C   0  0  0  0  0  0  0  0  0  0  0  0
    0.3192   -0.8629   -1.0208 C   0  0  0  0  0  0  0  0  0  0  0  0
   -0.6863   -1.3663   -1.8535 C   0  0  0  0  0  0  0  0  0  0  0  0
   -0.4042   -2.2850   -2.8597 C   0  0  0  0  0  0  0  0  0  0  0  0
    0.9031   -2.6988   -3.0187 C   0  0  0  0  0  0  0  0  0  0  0  0
    1.1890   -3.5908   -3.9904 F   0  0  0  0  0  0  0  0  0  0  0  0
    1.9357   -2.2307   -2.2192 C   0  0  0  0  0  0  0  0  0  0  0  0
    1.6237   -1.3283   -1.2315 C   0  0  0  0  0  0  0  0  0  0  0  0
    3.0450   -0.6929   -0.1260 Br  0  0  0  0  0  0  0  0  0  0  0  0
    0.3251    1.3918   -0.1368 N   0  0  0  0  0  0  0  0  0  0  0  0
    0.0296    2.2818    0.7973 C   0  0  0  0  0  0  0  0  0  0  0  0
   -1.4315    3.8794    2.5556 H   0  0  0  0  0  0  0  0  0  0  0  0
   -0.0142    3.3962    3.4625 H   0  0  0  0  0  0  0  0  0  0  0  0
   -1.5648    2.6329    3.8063 H   0  0  0  0  0  0  0  0  0  0  0  0
   -1.4785    0.3321    3.0815 H   0  0  0  0  0  0  0  0  0  0  0  0
   -0.9397   -1.3449    1.3100 H   0  0  0  0  0  0  0  0  0  0  0  0
   -1.7017   -1.0318   -1.6974 H   0  0  0  0  0  0  0  0  0  0  0  0
   -1.1850   -2.6668   -3.5093 H   0  0  0  0  0  0  0  0  0  0  0  0
    2.9500   -2.5774   -2.3829 H   0  0  0  0  0  0  0  0  0  0  0  0
    0.3229    3.3155    0.6054 H   0  0  0  0  0  0  0  0  0  0  0  0
  1  2  1  0
  2  3  2  0
  3  4  1  0
  4  5  2  0
  5  6  1  0
  6  7  2  0
  7  8  1  0
  8  9  2  0
  9 10  1  0
  9 11  1  0
 11 12  2  0
 12 13  1  0
  5 14  1  0
 14 15  2  0
 15  2  1  0
 12  6  1  0
  1 16  1  0
  1 17  1  0
  1 18  1  0
  3 19  1  0
  4 20  1  0
  7 21  1  0
  8 22  1  0
 11 23  1  0
 15 24  1  0
M  END
$$$$

     RDKit          3D

 24 25  0  0  0  0  0  0  0  0999 V2000
    0.0492   -4.3424   -0.4631 C   0  0  0  0  0  0  0  0  0  0  0  0
    0.0569   -2.8626   -0.2734 C   0  0  0  0  0  0  0  0  0  0  0  0
    0.7845   -2.2267    0.7359 C   0  0  0  0  0  0  0  0  0  0  0  0
    0.7396   -0.8585    0.8670 C   0  0  0  0  0  0  0  0  0  0  0  0
   -0.0440   -0.1168   -0.0216 C   0  0  0  0  0  0  0  0  0  0  0  0
   -0.1062    1.3677    0.0482 C   0  0  0  0  0  0  0  0  0  0  0  0
    0.3169    2.1167   -1.0520 C   0  0  0  0  0  0  0  0  0  0  0  0
    0.3222    3.5061   -1.0267 C   0  0  0  0  0  0  0  0  0  0  0  0
   -0.1136    4.1425    0.1207 C   0  0  0  0  0  0  0  0  0  0  0  0
   -0.1096    5.4885    0.1585 F   0  0  0  0  0  0  0  0  0  0  0  0
   -0.5535    3.4479    1.2367 C   0  0  0  0  0  0  0  0  0  0  0  0
   -0.5528    2.0777    1.1768 C   0  0  0  0  0  0  0  0  0  0  0  0
   -1.2586    1.1355    2.6822 Br  0  0  0  0  0  0  0  0  0  0  0  0
   -0.7374   -0.7073   -0.9926 N   0  0  0  0  0  0  0  0  0  0  0  0
   -0.6962   -2.0215   -1.1068 C   0  0  0  0  0  0  0  0  0  0  0  0
    0.8898   -4.8096    0.0531 H   0  0  0  0  0  0  0  0  0  0  0  0
    0.0935   -4.6063   -1.5195 H   0  0  0  0  0  0  0  0  0  0  0  0
   -0.8690   -4.7766   -0.0629 H   0  0  0  0  0  0  0  0  0  0  0  0
    1.3924   -2.8194    1.4079 H   0  0  0  0  0  0  0  0  0  0  0  0
    1.2853   -0.3346    1.6480 H   0  0  0  0  0  0  0  0  0  0  0  0
    0.6361    1.5902   -1.9407 H   0  0  0  0  0  0  0  0  0  0  0  0
    0.6573    4.0818   -1.8821 H   0  0  0  0  0  0  0  0  0  0  0  0
   -0.8914    3.9863    2.1155 H   0  0  0  0  0  0  0  0  0  0  0  0
   -1.2912   -2.4584   -1.9091 H   0  0  0  0  0  0  0  0  0  0  0  0
  1  2  1  0
  2  3  2  0
  3  4  1  0
  4  5  2  0
  5  6  1  0
  6  7  2  0
  7  8  1  0
  8  9  2  0
  9 10  1  0
  9 11  1  0
 11 12  2  0
 12 13  1  0
  5 14  1  0
 14 15  2  0
 15  2  1  0
 12  6  1  0
  1 16  1  0
  1 17  1  0
  1 18  1  0
  3 19  1  0
  4 20  1  0
  7 21  1  0
  8 22  1  0
 11 23  1  0
 15 24  1  0
M  END
$$$$

     RDKit          3D

 24 25  0  0  0  0  0  0  0  0999 V2000
   -3.4081   -2.4642    1.1827 C   0  0  0  0  0  0  0  0  0  0  0  0
   -2.2478   -1.6106    0.7997 C   0  0  0  0  0  0  0  0  0  0  0  0
   -1.7774   -0.5731    1.6095 C   0  0  0  0  0  0  0  0  0  0  0  0
   -0.6971    0.1841    1.2165 C   0  0  0  0  0  0  0  0  0  0  0  0
   -0.0909   -0.0918   -0.0073 C   0  0  0  0  0  0  0  0  0  0  0  0
    1.0826    0.7059   -0.4605 C   0  0  0  0  0  0  0  0  0  0  0  0
    2.2825    0.6505    0.2597 C   0  0  0  0  0  0  0  0  0  0  0  0
    3.4017    1.3742   -0.1307 C   0  0  0  0  0  0  0  0  0  0  0  0
    3.3122    2.1570   -1.2625 C   0  0  0  0  0  0  0  0  0  0  0  0
    4.3892    2.8649   -1.6560 F   0  0  0  0  0  0  0  0  0  0  0  0
    2.1483    2.2526   -2.0097 C   0  0  0  0  0  0  0  0  0  0  0  0
    1.0521    1.5381   -1.5882 C   0  0  0  0  0  0  0  0  0  0  0  0
   -0.5624    1.7372   -2.5841 Br  0  0  0  0  0  0  0  0  0  0  0  0
   -0.5204   -1.0820   -0.7916 N   0  0  0  0  0  0  0  0  0  0  0  0
   -1.5539   -1.8126   -0.4027 C   0  0  0  0  0  0  0  0  0  0  0  0
   -4.0633   -2.6403    0.3277 H   0  0  0  0  0  0  0  0  0  0  0  0
   -3.9904   -1.9990    1.9798 H   0  0  0  0  0  0  0  0  0  0  0  0
   -3.0774   -3.4364    1.5362 H   0  0  0  0  0  0  0  0  0  0  0  0
   -2.2776   -0.3655    2.5462 H   0  0  0  0  0  0  0  0  0  0  0  0
   -0.3097    0.9900    1.8283 H   0  0  0  0  0  0  0  0  0  0  0  0
    2.3251    0.0301    1.1419 H   0  0  0  0  0  0  0  0  0  0  0  0
    4.3280    1.3213    0.4302 H   0  0  0  0  0  0  0  0  0  0  0  0
    2.1227    2.8821   -2.8921 H   0  0  0  0  0  0  0  0  0  0  0  0
   -1.8679   -2.6123   -1.0730 H   0  0  0  0  0  0  0  0  0  0  0  0
  1  2  1  0
  2  3  2  0
  3  4  1  0
  4  5  2  0
  5  6  1  0
  6  7  2  0
  7  8  1  0
  8  9  2  0
  9 10  1  0
  9 11  1  0
 11 12  2  0
 12 13  1  0
  5 14  1  0
 14 15  2  0
 15  2  1  0
 12  6  1  0
  1 16  1  0
  1 17  1  0
  1 18  1  0
  3 19  1  0
  4 20  1  0
  7 21  1  0
  8 22  1  0
 11 23  1  0
 15 24  1  0
M  END
$$$$
