
     RDKit          3D

 24 25  0  0  0  0  0  0  0  0999 V2000
    5.3977    0.5997   -0.7608 F   0  0  0  0  0  0  0  0  0  0  0  0
    4.0815    0.4474   -0.5617 C   0  0  0  0  0  0  0  0  0  0  0  0
    3.4734   -0.7284   -0.9699 C   0  0  0  0  0  0  0  0  0  0  0  0
    2.1082   -0.8717   -0.7629 C   0  0  0  0  0  0  0  0  0  0  0  0
    1.3520    0.1413   -0.1660 C   0  0  0  0  0  0  0  0  0  0  0  0
   -0.1105   -0.0274    0.0210 C   0  0  0  0  0  0  0  0  0  0  0  0
   -1.0134    1.0050   -0.2430 C   0  0  0  0  0  0  0  0  0  0  0  0
   -2.3559    0.7887   -0.0486 C   0  0  0  0  0  0  0  0  0  0  0  0
   -2.7785   -0.4556    0.4014 C   0  0  0  0  0  0  0  0  0  0  0  0
   -4.2204   -0.7711    0.6546 C   0  0  0  0  0  0  0  0  0  0  0  0
   -5.0209    0.2771    0.3941 F   0  0  0  0  0  0  0  0  0  0  0  0
   -4.6499   -1.8015   -0.1022 F   0  0  0  0  0  0  0  0  0  0  0  0
   -4.4332   -1.1396    1.9302 F   0  0  0  0  0  0  0  0  0  0  0  0
   -1.8128   -1.4415    0.6252 C   0  0  0  0  0  0  0  0  0  0  0  0
   -0.5347   -1.2284    0.4312 N   0  0  0  0  0  0  0  0  0  0  0  0
    2.0415    1.2852    0.2351 C   0  0  0  0  0  0  0  0  0  0  0  0
    1.3631    2.2706    0.8674 F   0  0  0  0  0  0  0  0  0  0  0  0
    3.3900    1.4719    0.0501 C   0  0  0  0  0  0  0  0  0  0  0  0
    4.0472   -1.5110   -1.4433 H   0  0  0  0  0  0  0  0  0  0  0  0
    1.6150   -1.7820   -1.0547 H   0  0  0  0  0  0  0  0  0  0  0  0
   -0.6431    1.9593   -0.5935 H   0  0  0  0  0  0  0  0  0  0  0  0
   -3.0721    1.5769   -0.2520 H   0  0  0  0  0  0  0  0  0  0  0  0
   -2.1008   -2.4393    0.9686 H   0  0  0  0  0  0  0  0  0  0  0  0
    3.8766    2.3744    0.3796 H   0  0  0  0  0  0  0  0  0  0  0  0
  1  2  1  0
  2  3  2  0
  3  4  1  0
  4  5  2  0
  5  6  1  0
  6  7  2  0
  7  8  1  0
  8  9  2  0
  9 10  1  0
 10 11  1  0
 10 12  1  0
 10 13  1  0
  9 14  1  0
 14 15  2  0
  5 16  1  0
 16 17  1  0
 16 18  2  0
 18  2  1  0
 15  6  1  0
  3 19  1  0
  4 20  1  0
  7 21  1  0
  8 22  1  0
 14 23  1  0
 18 24  1  0
M  END
$$$$

     RDKit          3D

 24 25  0  0  0  0  0  0  0  0999 V2000
    0.0305    3.8898    3.8595 F   0  0  0  0  0  0  0  0  0  0  0  0
    0.0148    2.9561    2.9001 C   0  0  0  0  0  0  0  0  0  0  0  0
    1.1814    2.7012    2.1973 C   0  0  0  0  0  0  0  0  0  0  0  0
    1.1571    1.7259    1.2105 C   0  0  0  0  0  0  0  0  0  0  0  0
   -0.0088    1.0055    0.9294 C   0  0  0  0  0  0  0  0  0  0  0  0
   -0.0034   -0.0592   -0.1028 C   0  0  0  0  0  0  0  0  0  0  0  0
   -0.6674   -1.2744    0.0850 C   0  0  0  0  0  0  0  0  0  0  0  0
   -0.6117   -2.2312   -0.8973 C   0  0  0  0  0  0  0  0  0  0  0  0
    0.1076   -1.9634   -2.0536 C   0  0  0  0  0  0  0  0  0  0  0  0
    0.2069   -2.9451   -3.1818 C   0  0  0  0  0  0  0  0  0  0  0  0
   -0.4749   -2.5209   -4.2641 F   0  0  0  0  0  0  0  0  0  0  0  0
   -0.2763   -4.1560   -2.8508 F   0  0  0  0  0  0  0  0  0  0  0  0
    1.4783   -3.1103   -3.5909 F   0  0  0  0  0  0  0  0  0  0  0  0
    0.7460   -0.7237   -2.1645 C   0  0  0  0  0  0  0  0  0  0  0  0
    0.6891    0.1846   -1.2209 N   0  0  0  0  0  0  0  0  0  0  0  0
   -1.1453    1.3365    1.6679 C   0  0  0  0  0  0  0  0  0  0  0  0
   -2.3139    0.7178    1.3826 F   0  0  0  0  0  0  0  0  0  0  0  0
   -1.1676    2.2908    2.6552 C   0  0  0  0  0  0  0  0  0  0  0  0
    2.0869    3.2483    2.4148 H   0  0  0  0  0  0  0  0  0  0  0  0
    2.0478    1.5196    0.6410 H   0  0  0  0  0  0  0  0  0  0  0  0
   -1.2114   -1.4490    1.0010 H   0  0  0  0  0  0  0  0  0  0  0  0
   -1.1177   -3.1811   -0.7622 H   0  0  0  0  0  0  0  0  0  0  0  0
    1.3223   -0.4665   -3.0584 H   0  0  0  0  0  0  0  0  0  0  0  0
   -2.0703    2.5046    3.2028 H   0  0  0  0  0  0  0  0  0  0  0  0
  1  2  1  0
  2  3  2  0
  3  4  1  0
  4  5  2  0
  5  6  1  0
  6  7  2  0
  7  8  1  0
  8  9  2  0
  9 10  1  0
 10 11  1  0
 10 12  1  0
 10 13  1  0
  9 14  1  0
 14 15  2  0
  5 16  1  0
 16 17  1  0
 16 18  2  0
 18  2  1  0
 15  6  1  0
  3 19  1  0
  4 20  1  0
  7 21  1  0
  8 22  1  0
 14 23  1  0
 18 24  1  0
M  END
$$$$

     RDKit          3D

 24 25  0  0  0  0  0  0  0  0999 V2000
   -1.7950   -2.9466    4.2623 F   0  0  0  0  0  0  0  0  0  0  0  0
   -1.3578   -2.2214    3.2243 C   0  0  0  0  0  0  0  0  0  0  0  0
   -0.1556   -2.5666    2.6283 C   0  0  0  0  0  0  0  0  0  0  0  0
    0.2881   -1.8105    1.5531 C   0  0  0  0  0  0  0  0  0  0  0  0
   -0.4552   -0.7288    1.0651 C   0  0  0  0  0  0  0  0  0  0  0  0
    0.0392    0.0565   -0.0923 C   0  0  0  0  0  0  0  0  0  0  0  0
   -0.8162    0.5554   -1.0790 C   0  0  0  0  0  0  0  0  0  0  0  0
   -0.2918    1.2792   -2.1217 C   0  0  0  0  0  0  0  0  0  0  0  0
    1.0803    1.4884   -2.1699 C   0  0  0  0  0  0  0  0  0  0  0  0
    1.7399    2.2861   -3.2535 C   0  0  0  0  0  0  0  0  0  0  0  0
    2.6550    1.5570   -3.9209 F   0  0  0  0  0  0  0  0  0  0  0  0
    0.8599    2.7532   -4.1575 F   0  0  0  0  0  0  0  0  0  0  0  0
    2.4097    3.3386   -2.7510 F   0  0  0  0  0  0  0  0  0  0  0  0
    1.8703    0.9359   -1.1559 C   0  0  0  0  0  0  0  0  0  0  0  0
    1.3625    0.2512   -0.1646 N   0  0  0  0  0  0  0  0  0  0  0  0
   -1.6489   -0.4419    1.7276 C   0  0  0  0  0  0  0  0  0  0  0  0
   -2.3806    0.6230    1.3223 F   0  0  0  0  0  0  0  0  0  0  0  0
   -2.1264   -1.1591    2.7977 C   0  0  0  0  0  0  0  0  0  0  0  0
    0.4185   -3.4047    2.9957 H   0  0  0  0  0  0  0  0  0  0  0  0
    1.2233   -2.0508    1.0783 H   0  0  0  0  0  0  0  0  0  0  0  0
   -1.8771    0.3648   -1.0130 H   0  0  0  0  0  0  0  0  0  0  0  0
   -0.9446    1.6747   -2.8915 H   0  0  0  0  0  0  0  0  0  0  0  0
    2.9581    1.0627   -1.1603 H   0  0  0  0  0  0  0  0  0  0  0  0
   -3.0556   -0.8962    3.2766 H   0  0  0  0  0  0  0  0  0  0  0  0
  1  2  1  0
  2  3  2  0
  3  4  1  0
  4  5  2  0
  5  6  1  0
  6  7  2  0
  7  8  1  0
  8  9  2  0
  9 10  1  0
 10 11  1  0
 10 12  1  0
 10 13  1  0
  9 14  1  0
 14 15  2  0
  5 16  1  0
 16 17  1  0
 16 18  2  0
 18  2  1  0
 15  6  1  0
  3 19  1  0
  4 20  1  0
  7 21  1  0
  8 22  1  0
 14 23  1  0
 18 24  1  0
M  END
$$$$

     RDKit          3D

 24 25  0  0  0  0  0  0  0  0999 V2000
    5.4073    0.5329   -0.7580 F   0  0  0  0  0  0  0  0  0  0  0  0
    4.0887    0.4012   -0.5645 C   0  0  0  0  0  0  0  0  0  0  0  0
    3.5611   -0.8674   -0.3966 C   0  0  0  0  0  0  0  0  0  0  0  0
    2.1948   -0.9914   -0.1920 C   0  0  0  0  0  0  0  0  0  0  0  0
    1.3547    0.1275   -0.1662 C   0  0  0  0  0  0  0  0  0  0  0  0
   -0.1071   -0.0370    0.0283 C   0  0  0  0  0  0  0  0  0  0  0  0
   -1.0403    0.7595   -0.6451 C   0  0  0  0  0  0  0  0  0  0  0  0
   -2.3783    0.5710   -0.4142 C   0  0  0  0  0  0  0  0  0  0  0  0
   -2.7739   -0.4257    0.4735 C   0  0  0  0  0  0  0  0  0  0  0  0
   -4.2242   -0.6492    0.7762 C   0  0  0  0  0  0  0  0  0  0  0  0
   -4.9695   -0.6316   -0.3361 F   0  0  0  0  0  0  0  0  0  0  0  0
   -4.7172    0.3225    1.5694 F   0  0  0  0  0  0  0  0  0  0  0  0
   -4.4465   -1.8218    1.4038 F   0  0  0  0  0  0  0  0  0  0  0  0
   -1.7823   -1.1971    1.0826 C   0  0  0  0  0  0  0  0  0  0  0  0
   -0.5024   -1.0031    0.8636 N   0  0  0  0  0  0  0  0  0  0  0  0
    1.9675    1.3704   -0.3250 C   0  0  0  0  0  0  0  0  0  0  0  0
    1.2068    2.4881   -0.2462 F   0  0  0  0  0  0  0  0  0  0  0  0
    3.3152    1.5416   -0.5326 C   0  0  0  0  0  0  0  0  0  0  0  0
    4.2004   -1.7363   -0.4252 H   0  0  0  0  0  0  0  0  0  0  0  0
    1.7618   -1.9645   -0.0388 H   0  0  0  0  0  0  0  0  0  0  0  0
   -0.6942    1.5074   -1.3420 H   0  0  0  0  0  0  0  0  0  0  0  0
   -3.1188    1.1853   -0.9222 H   0  0  0  0  0  0  0  0  0  0  0  0
   -2.0425   -2.0067    1.7670 H   0  0  0  0  0  0  0  0  0  0  0  0
    3.7387    2.5243   -0.6595 H   0  0  0  0  0  0  0  0  0  0  0  0
  1  2  1  0
  2  3  2  0
  3  4  1  0
  4  5  2  0
  5  6  1  0
  6  7  2  0
  7  8  1  0
  8  9  2  0
  9 10  1  0
 10 11  1  0
 10 12  1  0
 10 13  1  0
  9 14  1  0
 14 15  2  0
  5 16  1  0
 16 17  1  0
 16 18  2  0
 18  2  1  0
 15  6  1  0
  3 19  1  0
  4 20  1  0
  7 21  1  0
  8 22  1  0
 14 23  1  0
 18 24  1  0
M  END
$$$$

     RDKit          3D

 24 25  0  0  0  0  0  0  0  0999 V2000
   -2.8981   -4.4716    1.2940 F   0  0  0  0  0  0  0  0  0  0  0  0
   -2.1925   -3.3836    0.9616 C   0  0  0  0  0  0  0  0  0  0  0  0
   -2.6920   -2.1359    1.2990 C   0  0  0  0  0  0  0  0  0  0  0  0
   -1.9492   -1.0149    0.9582 C   0  0  0  0  0  0  0  0  0  0  0  0
   -0.7212   -1.1257    0.2964 C   0  0  0  0  0  0  0  0  0  0  0  0
    0.0568    0.0922   -0.0374 C   0  0  0  0  0  0  0  0  0  0  0  0
    1.4534    0.1219    0.0076 C   0  0  0  0  0  0  0  0  0  0  0  0
    2.1124    1.2840   -0.3127 C   0  0  0  0  0  0  0  0  0  0  0  0
    1.3685    2.4035   -0.6661 C   0  0  0  0  0  0  0  0  0  0  0  0
    1.9999    3.7126   -1.0351 C   0  0  0  0  0  0  0  0  0  0  0  0
    1.6452    4.1142   -2.2671 F   0  0  0  0  0  0  0  0  0  0  0  0
    1.6109    4.6997   -0.2046 F   0  0  0  0  0  0  0  0  0  0  0  0
    3.3433    3.6566   -0.9943 F   0  0  0  0  0  0  0  0  0  0  0  0
   -0.0261    2.2981   -0.6633 C   0  0  0  0  0  0  0  0  0  0  0  0
   -0.6464    1.1870   -0.3630 N   0  0  0  0  0  0  0  0  0  0  0  0
   -0.2967   -2.4171   -0.0187 C   0  0  0  0  0  0  0  0  0  0  0  0
    0.8596   -2.5757   -0.7034 F   0  0  0  0  0  0  0  0  0  0  0  0
   -0.9969   -3.5561    0.2987 C   0  0  0  0  0  0  0  0  0  0  0  0
   -3.6356   -2.0418    1.8153 H   0  0  0  0  0  0  0  0  0  0  0  0
   -2.3164   -0.0340    1.2038 H   0  0  0  0  0  0  0  0  0  0  0  0
    1.9991   -0.7631    0.3024 H   0  0  0  0  0  0  0  0  0  0  0  0
    3.1959    1.3196   -0.2885 H   0  0  0  0  0  0  0  0  0  0  0  0
   -0.6529    3.1613   -0.9183 H   0  0  0  0  0  0  0  0  0  0  0  0
   -0.6209   -4.5314    0.0357 H   0  0  0  0  0  0  0  0  0  0  0  0
  1  2  1  0
  2  3  2  0
  3  4  1  0
  4  5  2  0
  5  6  1  0
  6  7  2  0
  7  8  1  0
  8  9  2  0
  9 10  1  0
 10 11  1  0
 10 12  1  0
 10 13  1  0
  9 14  1  0
 14 15  2  0
  5 16  1  0
 16 17  1  0
 16 18  2  0
 18  2  1  0
 15  6  1  0
  3 19  1  0
  4 20  1  0
  7 21  1  0
  8 22  1  0
 14 23  1  0
 18 24  1  0
M  END
$$$$

     RDKit          3D

 24 25  0  0  0  0  0  0  0  0999 V2000
   -4.2958   -3.3990    0.2700 F   0  0  0  0  0  0  0  0  0  0  0  0
   -3.2460   -2.5702    0.2275 C   0  0  0  0  0  0  0  0  0  0  0  0
   -2.1072   -2.9699   -0.4516 C   0  0  0  0  0  0  0  0  0  0  0  0
   -1.0260   -2.1017   -0.4936 C   0  0  0  0  0  0  0  0  0  0  0  0
   -1.0762   -0.8399    0.1116 C   0  0  0  0  0  0  0  0  0  0  0  0
    0.0888    0.0760    0.0181 C   0  0  0  0  0  0  0  0  0  0  0  0
   -0.0478    1.4662   -0.0427 C   0  0  0  0  0  0  0  0  0  0  0  0
    1.0770    2.2506   -0.1400 C   0  0  0  0  0  0  0  0  0  0  0  0
    2.3218    1.6366   -0.1896 C   0  0  0  0  0  0  0  0  0  0  0  0
    3.6014    2.4080   -0.3060 C   0  0  0  0  0  0  0  0  0  0  0  0
    4.2980    2.0483   -1.4009 F   0  0  0  0  0  0  0  0  0  0  0  0
    4.4173    2.1772    0.7352 F   0  0  0  0  0  0  0  0  0  0  0  0
    3.3936    3.7342   -0.3775 F   0  0  0  0  0  0  0  0  0  0  0  0
    2.3735    0.2405   -0.1316 C   0  0  0  0  0  0  0  0  0  0  0  0
    1.2995   -0.4983   -0.0340 N   0  0  0  0  0  0  0  0  0  0  0  0
   -2.2545   -0.5241    0.7901 C   0  0  0  0  0  0  0  0  0  0  0  0
   -2.3365    0.6575    1.4424 F   0  0  0  0  0  0  0  0  0  0  0  0
   -3.3468   -1.3539    0.8657 C   0  0  0  0  0  0  0  0  0  0  0  0
   -2.0666   -3.9332   -0.9376 H   0  0  0  0  0  0  0  0  0  0  0  0
   -0.1221   -2.3954   -0.9950 H   0  0  0  0  0  0  0  0  0  0  0  0
   -1.0321    1.9088   -0.0256 H   0  0  0  0  0  0  0  0  0  0  0  0
    0.9864    3.3298   -0.1743 H   0  0  0  0  0  0  0  0  0  0  0  0
    3.3336   -0.2876   -0.1642 H   0  0  0  0  0  0  0  0  0  0  0  0
   -4.2333   -1.0604    1.4038 H   0  0  0  0  0  0  0  0  0  0  0  0
  1  2  1  0
  2  3  2  0
  3  4  1  0
  4  5  2  0
  5  6  1  0
  6  7  2  0
  7  8  1  0
  8  9  2  0
  9 10  1  0
 10 11  1  0
 10 12  1  0
 10 13  1  0
  9 14  1  0
 14 15  2  0
  5 16  1  0
 16 17  1  0
 16 18  2  0
 18  2  1  0
 15  6  1  0
  3 19  1  0
  4 20  1  0
  7 21  1  0
  8 22  1  0
 14 23  1  0
 18 24  1  0
M  END
$$$$

     RDKit          3D

 24 25  0  0  0  0  0  0  0  0999 V2000
   -1.5821   -4.4890    2.7275 F   0  0  0  0  0  0  0  0  0  0  0  0
   -1.1897   -3.3911    2.0674 C   0  0  0  0  0  0  0  0  0  0  0  0
   -1.2218   -3.3937    0.6828 C   0  0  0  0  0  0  0  0  0  0  0  0
   -0.8111   -2.2516    0.0120 C   0  0  0  0  0  0  0  0  0  0  0  0
   -0.3829   -1.1108    0.7024 C   0  0  0  0  0  0  0  0  0  0  0  0
    0.0402    0.0945   -0.0525 C   0  0  0  0  0  0  0  0  0  0  0  0
   -0.2038    1.3905    0.4095 C   0  0  0  0  0  0  0  0  0  0  0  0
    0.2003    2.4633   -0.3470 C   0  0  0  0  0  0  0  0  0  0  0  0
    0.8501    2.2288   -1.5514 C   0  0  0  0  0  0  0  0  0  0  0  0
    1.3581    3.3367   -2.4228 C   0  0  0  0  0  0  0  0  0  0  0  0
    0.9029    3.2308   -3.6837 F   0  0  0  0  0  0  0  0  0  0  0  0
    1.0018    4.5489   -1.9623 F   0  0  0  0  0  0  0  0  0  0  0  0
    2.6999    3.3165   -2.5182 F   0  0  0  0  0  0  0  0  0  0  0  0
    1.0440    0.9028   -1.9513 C   0  0  0  0  0  0  0  0  0  0  0  0
    0.6543   -0.1152   -1.2269 N   0  0  0  0  0  0  0  0  0  0  0  0
   -0.3762   -1.1928    2.0959 C   0  0  0  0  0  0  0  0  0  0  0  0
    0.0692   -0.1372    2.8169 F   0  0  0  0  0  0  0  0  0  0  0  0
   -0.7677   -2.3045    2.8024 C   0  0  0  0  0  0  0  0  0  0  0  0
   -1.5545   -4.2651    0.1403 H   0  0  0  0  0  0  0  0  0  0  0  0
   -0.8209   -2.2287   -1.0628 H   0  0  0  0  0  0  0  0  0  0  0  0
   -0.7146    1.5381    1.3490 H   0  0  0  0  0  0  0  0  0  0  0  0
    0.0062    3.4742   -0.0052 H   0  0  0  0  0  0  0  0  0  0  0  0
    1.5394    0.6736   -2.9016 H   0  0  0  0  0  0  0  0  0  0  0  0
   -0.7409   -2.3189    3.8795 H   0  0  0  0  0  0  0  0  0  0  0  0
  1  2  1  0
  2  3  2  0
  3  4  1  0
  4  5  2  0
  5  6  1  0
  6  7  2  0
  7  8  1  0
  8  9  2  0
  9 10  1  0
 10 11  1  0
 10 12  1  0
 10 13  1  0
  9 14  1  0
 14 15  2  0
  5 16  1  0
 16 17  1  0
 16 18  2  0
 18  2  1  0
 15  6  1  0
  3 19  1  0
  4 20  1  0
  7 21  1  0
  8 22  1  0
 14 23  1  0
 18 24  1  0
M  END
$$$$

     RDKit          3D

 24 25  0  0  0  0  0  0  0  0999 V2000
   -0.5481   -5.3967    0.7880 F   0  0  0  0  0  0  0  0  0  0  0  0
   -0.4246   -4.0773    0.5933 C   0  0  0  0  0  0  0  0  0  0  0  0
   -0.2727   -3.2527    1.6956 C   0  0  0  0  0  0  0  0  0  0  0  0
   -0.1511   -1.8872    1.4841 C   0  0  0  0  0  0  0  0  0  0  0  0
   -0.1631   -1.3462    0.1942 C   0  0  0  0  0  0  0  0  0  0  0  0
   -0.0048    0.1133   -0.0063 C   0  0  0  0  0  0  0  0  0  0  0  0
    0.8015    0.6379   -1.0196 C   0  0  0  0  0  0  0  0  0  0  0  0
    0.9187    2.0009   -1.1498 C   0  0  0  0  0  0  0  0  0  0  0  0
    0.2246    2.8213   -0.2706 C   0  0  0  0  0  0  0  0  0  0  0  0
    0.2733    4.3177   -0.3560 C   0  0  0  0  0  0  0  0  0  0  0  0
   -0.9345    4.8389   -0.6425 F   0  0  0  0  0  0  0  0  0  0  0  0
    0.6413    4.8748    0.8130 F   0  0  0  0  0  0  0  0  0  0  0  0
    1.1318    4.7475   -1.2986 F   0  0  0  0  0  0  0  0  0  0  0  0
   -0.5539    2.2180    0.7223 C   0  0  0  0  0  0  0  0  0  0  0  0
   -0.6534    0.9171    0.8441 N   0  0  0  0  0  0  0  0  0  0  0  0
   -0.3263   -2.2420   -0.8609 C   0  0  0  0  0  0  0  0  0  0  0  0
   -0.3869   -1.7600   -2.1237 F   0  0  0  0  0  0  0  0  0  0  0  0
   -0.4558   -3.6004   -0.6998 C   0  0  0  0  0  0  0  0  0  0  0  0
   -0.2465   -3.6677    2.6927 H   0  0  0  0  0  0  0  0  0  0  0  0
   -0.0443   -1.2192    2.3213 H   0  0  0  0  0  0  0  0  0  0  0  0
    1.3196   -0.0363   -1.6863 H   0  0  0  0  0  0  0  0  0  0  0  0
    1.5488    2.4257   -1.9247 H   0  0  0  0  0  0  0  0  0  0  0  0
   -1.1171    2.8267    1.4376 H   0  0  0  0  0  0  0  0  0  0  0  0
   -0.5766   -4.2541   -1.5472 H   0  0  0  0  0  0  0  0  0  0  0  0
  1  2  1  0
  2  3  2  0
  3  4  1  0
  4  5  2  0
  5  6  1  0
  6  7  2  0
  7  8  1  0
  8  9  2  0
  9 10  1  0
 10 11  1  0
 10 12  1  0
 10 13  1  0
  9 14  1  0
 14 15  2  0
  5 16  1  0
 16 17  1  0
 16 18  2  0
 18  2  1  0
 15  6  1  0
  3 19  1  0
  4 20  1  0
  7 21  1  0
  8 22  1  0
 14 23  1  0
 18 24  1  0
M  END
$$$$

     RDKit          3D

 24 25  0  0  0  0  0  0  0  0999 V2000
    3.5813   -3.6048   -2.0619 F   0  0  0  0  0  0  0  0  0  0  0  0
    2.7353   -2.7034   -1.5496 C   0  0  0  0  0  0  0  0  0  0  0  0
    2.0735   -1.8441   -2.4115 C   0  0  0  0  0  0  0  0  0  0  0  0
    1.1851   -0.9248   -1.8729 C   0  0  0  0  0  0  0  0  0  0  0  0
    0.9397   -0.8668   -0.4956 C   0  0  0  0  0  0  0  0  0  0  0  0
   -0.0489    0.1001    0.0412 C   0  0  0  0  0  0  0  0  0  0  0  0
   -0.8631   -0.1922    1.1425 C   0  0  0  0  0  0  0  0  0  0  0  0
   -1.7658    0.7412    1.5751 C   0  0  0  0  0  0  0  0  0  0  0  0
   -1.8541    1.9591    0.9036 C   0  0  0  0  0  0  0  0  0  0  0  0
   -2.8281    2.9977    1.3653 C   0  0  0  0  0  0  0  0  0  0  0  0
   -2.5803    3.3742    2.6333 F   0  0  0  0  0  0  0  0  0  0  0  0
   -2.8061    4.1106    0.6027 F   0  0  0  0  0  0  0  0  0  0  0  0
   -4.0838    2.5312    1.3712 F   0  0  0  0  0  0  0  0  0  0  0  0
   -1.0157    2.1702   -0.1926 C   0  0  0  0  0  0  0  0  0  0  0  0
   -0.1520    1.2703   -0.6003 N   0  0  0  0  0  0  0  0  0  0  0  0
    1.6620   -1.7548    0.3035 C   0  0  0  0  0  0  0  0  0  0  0  0
    1.5104   -1.7014    1.6466 F   0  0  0  0  0  0  0  0  0  0  0  0
    2.5551   -2.6775   -0.1841 C   0  0  0  0  0  0  0  0  0  0  0  0
    2.2449   -1.8922   -3.4767 H   0  0  0  0  0  0  0  0  0  0  0  0
    0.6699   -0.2363   -2.5201 H   0  0  0  0  0  0  0  0  0  0  0  0
   -0.7803   -1.1506    1.6314 H   0  0  0  0  0  0  0  0  0  0  0  0
   -2.4106    0.5373    2.4303 H   0  0  0  0  0  0  0  0  0  0  0  0
   -1.0513    3.1025   -0.7584 H   0  0  0  0  0  0  0  0  0  0  0  0
    3.0827   -3.3456    0.4769 H   0  0  0  0  0  0  0  0  0  0  0  0
  1  2  1  0
  2  3  2  0
  3  4  1  0
  4  5  2  0
  5  6  1  0
  6  7  2  0
  7  8  1  0
  8  9  2  0
  9 10  1  0
 10 11  1  0
 10 12  1  0
 10 13  1  0
  9 14  1  0
 14 15  2  0
  5 16  1  0
 16 17  1  0
 16 18  2  0
 18  2  1  0
 15  6  1  0
  3 19  1  0
  4 20  1  0
  7 21  1  0
  8 22  1  0
 14 23  1  0
 18 24  1  0
M  END
$$$$

     RDKit          3D

 24 25  0  0  0  0  0  0  0  0999 V2000
   -1.2737    1.6552   -5.0769 F   0  0  0  0  0  0  0  0  0  0  0  0
   -0.9816    1.2573   -3.8335 C   0  0  0  0  0  0  0  0  0  0  0  0
   -0.4936   -0.0236   -3.6362 C   0  0  0  0  0  0  0  0  0  0  0  0
   -0.1937   -0.4227   -2.3429 C   0  0  0  0  0  0  0  0  0  0  0  0
   -0.3517    0.4414   -1.2504 C   0  0  0  0  0  0  0  0  0  0  0  0
    0.0137   -0.0187    0.1147 C   0  0  0  0  0  0  0  0  0  0  0  0
    0.3686    0.8563    1.1482 C   0  0  0  0  0  0  0  0  0  0  0  0
    0.6941    0.3489    2.3832 C   0  0  0  0  0  0  0  0  0  0  0  0
    0.6740   -1.0269    2.5716 C   0  0  0  0  0  0  0  0  0  0  0  0
    1.0311   -1.6639    3.8802 C   0  0  0  0  0  0  0  0  0  0  0  0
    0.0800   -2.5134    4.2998 F   0  0  0  0  0  0  0  0  0  0  0  0
    2.1589   -2.3937    3.7851 F   0  0  0  0  0  0  0  0  0  0  0  0
    1.2245   -0.7560    4.8534 F   0  0  0  0  0  0  0  0  0  0  0  0
    0.3206   -1.8363    1.4875 C   0  0  0  0  0  0  0  0  0  0  0  0
    0.0129   -1.3463    0.3154 N   0  0  0  0  0  0  0  0  0  0  0  0
   -0.8667    1.7066   -1.5375 C   0  0  0  0  0  0  0  0  0  0  0  0
   -1.1150    2.5630   -0.5211 F   0  0  0  0  0  0  0  0  0  0  0  0
   -1.1836    2.1439   -2.8008 C   0  0  0  0  0  0  0  0  0  0  0  0
   -0.3528   -0.6955   -4.4692 H   0  0  0  0  0  0  0  0  0  0  0  0
    0.1630   -1.4188   -2.1605 H   0  0  0  0  0  0  0  0  0  0  0  0
    0.3950    1.9190    0.9709 H   0  0  0  0  0  0  0  0  0  0  0  0
    0.9666    1.0178    3.1925 H   0  0  0  0  0  0  0  0  0  0  0  0
    0.2896   -2.9264    1.5886 H   0  0  0  0  0  0  0  0  0  0  0  0
   -1.5802    3.1329   -2.9620 H   0  0  0  0  0  0  0  0  0  0  0  0
  1  2  1  0
  2  3  2  0
  3  4  1  0
  4  5  2  0
  5  6  1  0
  6  7  2  0
  7  8  1  0
  8  9  2  0
  9 10  1  0
 10 11  1  0
 10 12  1  0
 10 13  1  0
  9 14  1  0
 14 15  2  0
  5 16  1  0
 16 17  1  0
 16 18  2  0
 18  2  1  0
 15  6  1  0
  3 19  1  0
  4 20  1  0
  7 21  1  0
  8 22  1  0
 14 23  1  0
 18 24  1  0
M  END
$$$$

     RDKit          3D

 24 25  0  0  0  0  0  0  0  0999 V2000
   -2.4313    3.9921    2.8650 F   0  0  0  0  0  0  0  0  0  0  0  0
   -1.8451    3.0186    2.1585 C   0  0  0  0  0  0  0  0  0  0  0  0
   -1.6577    1.7817    2.7541 C   0  0  0  0  0  0  0  0  0  0  0  0
   -1.0490    0.7794    2.0131 C   0  0  0  0  0  0  0  0  0  0  0  0
   -0.6285    0.9977    0.6966 C   0  0  0  0  0  0  0  0  0  0  0  0
    0.0301   -0.0890   -0.0709 C   0  0  0  0  0  0  0  0  0  0  0  0
    1.1137    0.1519   -0.9207 C   0  0  0  0  0  0  0  0  0  0  0  0
    1.6818   -0.8970   -1.6013 C   0  0  0  0  0  0  0  0  0  0  0  0
    1.1734   -2.1751   -1.4078 C   0  0  0  0  0  0  0  0  0  0  0  0
    1.7589   -3.3799   -2.0803 C   0  0  0  0  0  0  0  0  0  0  0  0
    2.4056   -4.1733   -1.1983 F   0  0  0  0  0  0  0  0  0  0  0  0
    2.6443   -3.0520   -3.0377 F   0  0  0  0  0  0  0  0  0  0  0  0
    0.8147   -4.1505   -2.6415 F   0  0  0  0  0  0  0  0  0  0  0  0
    0.0930   -2.3332   -0.5335 C   0  0  0  0  0  0  0  0  0  0  0  0
   -0.4472   -1.3271    0.1081 N   0  0  0  0  0  0  0  0  0  0  0  0
   -0.8640    2.2676    0.1679 C   0  0  0  0  0  0  0  0  0  0  0  0
   -0.5134    2.5166   -1.1150 F   0  0  0  0  0  0  0  0  0  0  0  0
   -1.4613    3.2910    0.8631 C   0  0  0  0  0  0  0  0  0  0  0  0
   -1.9711    1.6077    3.7720 H   0  0  0  0  0  0  0  0  0  0  0  0
   -0.9016   -0.1918    2.4526 H   0  0  0  0  0  0  0  0  0  0  0  0
    1.4946    1.1570   -1.0293 H   0  0  0  0  0  0  0  0  0  0  0  0
    2.5175   -0.7264   -2.2713 H   0  0  0  0  0  0  0  0  0  0  0  0
   -0.3394   -3.3218   -0.3525 H   0  0  0  0  0  0  0  0  0  0  0  0
   -1.6179    4.2555    0.4092 H   0  0  0  0  0  0  0  0  0  0  0  0
  1  2  1  0
  2  3  2  0
  3  4  1  0
  4  5  2  0
  5  6  1  0
  6  7  2  0
  7  8  1  0
  8  9  2  0
  9 10  1  0
 10 11  1  0
 10 12  1  0
 10 13  1  0
  9 14  1  0
 14 15  2  0
  5 16  1  0
 16 17  1  0
 16 18  2  0
 18  2  1  0
 15  6  1  0
  3 19  1  0
  4 20  1  0
  7 21  1  0
  8 22  1  0
 14 23  1  0
 18 24  1  0
M  END
$$$$

     RDKit          3D

 24 25  0  0  0  0  0  0  0  0999 V2000
   -5.0855    0.7873   -1.8937 F   0  0  0  0  0  0  0  0  0  0  0  0
   -3.8501    0.5839   -1.4206 C   0  0  0  0  0  0  0  0  0  0  0  0
   -2.8269    0.3175   -2.3155 C   0  0  0  0  0  0  0  0  0  0  0  0
   -1.5503    0.1110   -1.8157 C   0  0  0  0  0  0  0  0  0  0  0  0
   -1.2842    0.1794   -0.4435 C   0  0  0  0  0  0  0  0  0  0  0  0
    0.1003   -0.0244    0.0498 C   0  0  0  0  0  0  0  0  0  0  0  0
    0.6111    0.6552    1.1588 C   0  0  0  0  0  0  0  0  0  0  0  0
    1.9074    0.4253    1.5520 C   0  0  0  0  0  0  0  0  0  0  0  0
    2.6765   -0.4848    0.8364 C   0  0  0  0  0  0  0  0  0  0  0  0
    4.0937   -0.8085    1.2043 C   0  0  0  0  0  0  0  0  0  0  0  0
    4.9594   -0.4346    0.2423 F   0  0  0  0  0  0  0  0  0  0  0  0
    4.2766   -2.1300    1.3640 F   0  0  0  0  0  0  0  0  0  0  0  0
    4.4768   -0.2027    2.3431 F   0  0  0  0  0  0  0  0  0  0  0  0
    2.0974   -1.1144   -0.2703 C   0  0  0  0  0  0  0  0  0  0  0  0
    0.8636   -0.8840   -0.6409 N   0  0  0  0  0  0  0  0  0  0  0  0
   -2.3734    0.4365    0.3905 C   0  0  0  0  0  0  0  0  0  0  0  0
   -2.1844    0.4479    1.7301 F   0  0  0  0  0  0  0  0  0  0  0  0
   -3.6541    0.6479   -0.0593 C   0  0  0  0  0  0  0  0  0  0  0  0
   -3.0222    0.2751   -3.3775 H   0  0  0  0  0  0  0  0  0  0  0  0
   -0.7424   -0.1127   -2.4870 H   0  0  0  0  0  0  0  0  0  0  0  0
   -0.0135    1.3553    1.6919 H   0  0  0  0  0  0  0  0  0  0  0  0
    2.3167    0.9516    2.4070 H   0  0  0  0  0  0  0  0  0  0  0  0
    2.6674   -1.8314   -0.8716 H   0  0  0  0  0  0  0  0  0  0  0  0
   -4.4597    0.8535    0.6257 H   0  0  0  0  0  0  0  0  0  0  0  0
  1  2  1  0
  2  3  2  0
  3  4  1  0
  4  5  2  0
  5  6  1  0
  6  7  2  0
  7  8  1  0
  8  9  2  0
  9 10  1  0
 10 11  1  0
 10 12  1  0
 10 13  1  0
  9 14  1  0
 14 15  2  0
  5 16  1  0
 16 17  1  0
 16 18  2  0
 18  2  1  0
 15  6  1  0
  3 19  1  0
  4 20  1  0
  7 21  1  0
  8 22  1  0
 14 23  1  0
 18 24  1  0
M  END
$$$$
