
     RDKit          3D

 23 24  0  0  0  0  0  0  0  0999 V2000
    4.8689    1.8098   -0.6046 O   0  0  0  0  0  0  0  0  0  0  0  0
    3.9932    1.9739    0.2194 C   0  0  0  0  0  0  0  0  0  0  0  0
    2.6868    1.3376    0.1576 C   0  0  0  0  0  0  0  0  0  0  0  0
    1.7118    1.5770    1.1496 C   0  0  0  0  0  0  0  0  0  0  0  0
    0.4769    0.9719    1.0977 C   0  0  0  0  0  0  0  0  0  0  0  0
    0.1430    0.1036    0.0491 C   0  0  0  0  0  0  0  0  0  0  0  0
   -1.1963   -0.5476    0.0139 C   0  0  0  0  0  0  0  0  0  0  0  0
   -1.7320   -1.0565   -1.1764 C   0  0  0  0  0  0  0  0  0  0  0  0
   -2.9608   -1.6880   -1.1421 C   0  0  0  0  0  0  0  0  0  0  0  0
   -3.6383   -1.7963    0.0664 C   0  0  0  0  0  0  0  0  0  0  0  0
   -3.0380   -1.2424    1.1983 C   0  0  0  0  0  0  0  0  0  0  0  0
   -1.8579   -0.6214    1.1761 N   0  0  0  0  0  0  0  0  0  0  0  0
    1.1079   -0.1388   -0.9405 C   0  0  0  0  0  0  0  0  0  0  0  0
    2.3423    0.4644   -0.8847 C   0  0  0  0  0  0  0  0  0  0  0  0
    4.1487    2.6190    1.0600 H   0  0  0  0  0  0  0  0  0  0  0  0
    1.9500    2.2536    1.9649 H   0  0  0  0  0  0  0  0  0  0  0  0
   -0.2576    1.1594    1.8714 H   0  0  0  0  0  0  0  0  0  0  0  0
   -1.2008   -0.9472   -2.1104 H   0  0  0  0  0  0  0  0  0  0  0  0
   -3.3820   -2.0863   -2.0467 H   0  0  0  0  0  0  0  0  0  0  0  0
   -4.5907   -2.2892    0.1367 H   0  0  0  0  0  0  0  0  0  0  0  0
   -3.5247   -1.2995    2.1591 H   0  0  0  0  0  0  0  0  0  0  0  0
    0.8817   -0.8185   -1.7493 H   0  0  0  0  0  0  0  0  0  0  0  0
    3.0679    0.2615   -1.6655 H   0  0  0  0  0  0  0  0  0  0  0  0
  1  2  2  0
  2  3  1  0
  3  4  2  0
  4  5  1  0
  5  6  2  0
  6  7  1  0
  7  8  2  0
  8  9  1  0
  9 10  2  0
 10 11  1  0
 11 12  2  0
  6 13  1  0
 13 14  2  0
 14  3  1  0
 12  7  1  0
  2 15  1  0
  4 16  1  0
  5 17  1  0
  8 18  1  0
  9 19  1  0
 10 20  1  0
 11 21  1  0
 13 22  1  0
 14 23  1  0
M  END
$$$$

     RDKit          3D

 23 24  0  0  0  0  0  0  0  0999 V2000
   -3.3064   -1.7857   -3.6459 O   0  0  0  0  0  0  0  0  0  0  0  0
   -3.4205   -1.1015   -2.6472 C   0  0  0  0  0  0  0  0  0  0  0  0
   -2.3066   -0.7171   -1.7934 C   0  0  0  0  0  0  0  0  0  0  0  0
   -2.5068    0.0832   -0.6487 C   0  0  0  0  0  0  0  0  0  0  0  0
   -1.4610    0.4315    0.1734 C   0  0  0  0  0  0  0  0  0  0  0  0
   -0.1540    0.0014   -0.0996 C   0  0  0  0  0  0  0  0  0  0  0  0
    0.9598    0.3738    0.8196 C   0  0  0  0  0  0  0  0  0  0  0  0
    2.2115   -0.2532    0.7573 C   0  0  0  0  0  0  0  0  0  0  0  0
    3.2065    0.1434    1.6307 C   0  0  0  0  0  0  0  0  0  0  0  0
    2.9460    1.1521    2.5496 C   0  0  0  0  0  0  0  0  0  0  0  0
    1.6694    1.7132    2.5496 C   0  0  0  0  0  0  0  0  0  0  0  0
    0.7006    1.3364    1.7145 N   0  0  0  0  0  0  0  0  0  0  0  0
    0.0561   -0.7744   -1.2512 C   0  0  0  0  0  0  0  0  0  0  0  0
   -0.9942   -1.1263   -2.0672 C   0  0  0  0  0  0  0  0  0  0  0  0
   -4.3806   -0.7375   -2.3435 H   0  0  0  0  0  0  0  0  0  0  0  0
   -3.5105    0.4263   -0.4215 H   0  0  0  0  0  0  0  0  0  0  0  0
   -1.6395    1.0447    1.0469 H   0  0  0  0  0  0  0  0  0  0  0  0
    2.3976   -1.0447    0.0496 H   0  0  0  0  0  0  0  0  0  0  0  0
    4.1699   -0.3290    1.5931 H   0  0  0  0  0  0  0  0  0  0  0  0
    3.6939    1.4926    3.2423 H   0  0  0  0  0  0  0  0  0  0  0  0
    1.4179    2.4952    3.2476 H   0  0  0  0  0  0  0  0  0  0  0  0
    1.0559   -1.0925   -1.5086 H   0  0  0  0  0  0  0  0  0  0  0  0
   -0.8050   -1.7317   -2.9475 H   0  0  0  0  0  0  0  0  0  0  0  0
  1  2  2  0
  2  3  1  0
  3  4  2  0
  4  5  1  0
  5  6  2  0
  6  7  1  0
  7  8  2  0
  8  9  1  0
  9 10  2  0
 10 11  1  0
 11 12  2  0
  6 13  1  0
 13 14  2  0
 14  3  1  0
 12  7  1  0
  2 15  1  0
  4 16  1  0
  5 17  1  0
  8 18  1  0
  9 19  1  0
 10 20  1  0
 11 21  1  0
 13 22  1  0
 14 23  1  0
M  END
$$$$

     RDKit          3D

 23 24  0  0  0  0  0  0  0  0999 V2000
    1.9143   -1.0124   -4.7689 O   0  0  0  0  0  0  0  0  0  0  0  0
    1.2663   -1.6390   -3.9550 C   0  0  0  0  0  0  0  0  0  0  0  0
    0.8536   -1.1156   -2.6618 C   0  0  0  0  0  0  0  0  0  0  0  0
    0.0877   -1.8940   -1.7659 C   0  0  0  0  0  0  0  0  0  0  0  0
   -0.3069   -1.3980   -0.5445 C   0  0  0  0  0  0  0  0  0  0  0  0
    0.0428   -0.0987   -0.1468 C   0  0  0  0  0  0  0  0  0  0  0  0
   -0.3986    0.4116    1.1840 C   0  0  0  0  0  0  0  0  0  0  0  0
   -0.2594    1.7588    1.5446 C   0  0  0  0  0  0  0  0  0  0  0  0
   -0.6824    2.1694    2.7958 C   0  0  0  0  0  0  0  0  0  0  0  0
   -1.2412    1.2409    3.6657 C   0  0  0  0  0  0  0  0  0  0  0  0
   -1.3456   -0.0779    3.2230 C   0  0  0  0  0  0  0  0  0  0  0  0
   -0.9441   -0.4856    2.0169 N   0  0  0  0  0  0  0  0  0  0  0  0
    0.8106    0.6766   -1.0302 C   0  0  0  0  0  0  0  0  0  0  0  0
    1.1991    0.1808   -2.2523 C   0  0  0  0  0  0  0  0  0  0  0  0
    0.9609   -2.6463   -4.1618 H   0  0  0  0  0  0  0  0  0  0  0  0
   -0.1909   -2.9010   -2.0575 H   0  0  0  0  0  0  0  0  0  0  0  0
   -0.8934   -2.0093    0.1298 H   0  0  0  0  0  0  0  0  0  0  0  0
    0.1713    2.4725    0.8584 H   0  0  0  0  0  0  0  0  0  0  0  0
   -0.5821    3.1986    3.0828 H   0  0  0  0  0  0  0  0  0  0  0  0
   -1.5843    1.5191    4.6458 H   0  0  0  0  0  0  0  0  0  0  0  0
   -1.7730   -0.8332    3.8601 H   0  0  0  0  0  0  0  0  0  0  0  0
    1.1066    1.6777   -0.7474 H   0  0  0  0  0  0  0  0  0  0  0  0
    1.7888    0.8050   -2.9148 H   0  0  0  0  0  0  0  0  0  0  0  0
  1  2  2  0
  2  3  1  0
  3  4  2  0
  4  5  1  0
  5  6  2  0
  6  7  1  0
  7  8  2  0
  8  9  1  0
  9 10  2  0
 10 11  1  0
 11 12  2  0
  6 13  1  0
 13 14  2  0
 14  3  1  0
 12  7  1  0
  2 15  1  0
  4 16  1  0
  5 17  1  0
  8 18  1  0
  9 19  1  0
 10 20  1  0
 11 21  1  0
 13 22  1  0
 14 23  1  0
M  END
$$$$

     RDKit          3D

 23 24  0  0  0  0  0  0  0  0999 V2000
   -2.7966    0.6085    4.3971 O   0  0  0  0  0  0  0  0  0  0  0  0
   -2.9236   -0.0185    3.3656 C   0  0  0  0  0  0  0  0  0  0  0  0
   -1.9464   -0.0228    2.2882 C   0  0  0  0  0  0  0  0  0  0  0  0
   -2.1551   -0.7798    1.1201 C   0  0  0  0  0  0  0  0  0  0  0  0
   -1.2434   -0.7806    0.0963 C   0  0  0  0  0  0  0  0  0  0  0  0
   -0.0697   -0.0127    0.1745 C   0  0  0  0  0  0  0  0  0  0  0  0
    0.9191    0.0245   -0.9397 C   0  0  0  0  0  0  0  0  0  0  0  0
    0.5424   -0.2355   -2.2636 C   0  0  0  0  0  0  0  0  0  0  0  0
    1.5008   -0.1882   -3.2591 C   0  0  0  0  0  0  0  0  0  0  0  0
    2.8154    0.1136   -2.9224 C   0  0  0  0  0  0  0  0  0  0  0  0
    3.0975    0.3624   -1.5780 C   0  0  0  0  0  0  0  0  0  0  0  0
    2.1777    0.3342   -0.6116 N   0  0  0  0  0  0  0  0  0  0  0  0
    0.1630    0.7246    1.3409 C   0  0  0  0  0  0  0  0  0  0  0  0
   -0.7585    0.7253    2.3679 C   0  0  0  0  0  0  0  0  0  0  0  0
   -3.7884   -0.6279    3.1981 H   0  0  0  0  0  0  0  0  0  0  0  0
   -3.0569   -1.3753    1.0336 H   0  0  0  0  0  0  0  0  0  0  0  0
   -1.4135   -1.3860   -0.7855 H   0  0  0  0  0  0  0  0  0  0  0  0
   -0.4873   -0.4568   -2.5028 H   0  0  0  0  0  0  0  0  0  0  0  0
    1.2233   -0.3758   -4.2805 H   0  0  0  0  0  0  0  0  0  0  0  0
    3.5936    0.1571   -3.6634 H   0  0  0  0  0  0  0  0  0  0  0  0
    4.1013    0.6027   -1.2672 H   0  0  0  0  0  0  0  0  0  0  0  0
    1.0775    1.2955    1.4266 H   0  0  0  0  0  0  0  0  0  0  0  0
   -0.5722    1.3115    3.2649 H   0  0  0  0  0  0  0  0  0  0  0  0
  1  2  2  0
  2  3  1  0
  3  4  2  0
  4  5  1  0
  5  6  2  0
  6  7  1  0
  7  8  2  0
  8  9  1  0
  9 10  2  0
 10 11  1  0
 11 12  2  0
  6 13  1  0
 13 14  2  0
 14  3  1  0
 12  7  1  0
  2 15  1  0
  4 16  1  0
  5 17  1  0
  8 18  1  0
  9 19  1  0
 10 20  1  0
 11 21  1  0
 13 22  1  0
 14 23  1  0
M  END
$$$$

     RDKit          3D

 23 24  0  0  0  0  0  0  0  0999 V2000
   -0.3119   -4.9825   -1.5603 O   0  0  0  0  0  0  0  0  0  0  0  0
   -0.8277   -3.9414   -1.9141 C   0  0  0  0  0  0  0  0  0  0  0  0
   -0.5399   -2.6477   -1.3149 C   0  0  0  0  0  0  0  0  0  0  0  0
   -1.1584   -1.4725   -1.7893 C   0  0  0  0  0  0  0  0  0  0  0  0
   -0.9058   -0.2489   -1.2131 C   0  0  0  0  0  0  0  0  0  0  0  0
   -0.0290   -0.1324   -0.1264 C   0  0  0  0  0  0  0  0  0  0  0  0
    0.2046    1.2001    0.4992 C   0  0  0  0  0  0  0  0  0  0  0  0
    0.7259    1.3177    1.7939 C   0  0  0  0  0  0  0  0  0  0  0  0
    0.9442    2.5783    2.3167 C   0  0  0  0  0  0  0  0  0  0  0  0
    0.6347    3.6973    1.5528 C   0  0  0  0  0  0  0  0  0  0  0  0
    0.0976    3.4868    0.2830 C   0  0  0  0  0  0  0  0  0  0  0  0
   -0.1174    2.2749   -0.2326 N   0  0  0  0  0  0  0  0  0  0  0  0
    0.6117   -1.2935    0.3331 C   0  0  0  0  0  0  0  0  0  0  0  0
    0.3561   -2.5156   -0.2442 C   0  0  0  0  0  0  0  0  0  0  0  0
   -1.5450   -3.9308   -2.7106 H   0  0  0  0  0  0  0  0  0  0  0  0
   -1.8470   -1.5474   -2.6248 H   0  0  0  0  0  0  0  0  0  0  0  0
   -1.3798    0.6447   -1.5948 H   0  0  0  0  0  0  0  0  0  0  0  0
    0.9365    0.4365    2.3808 H   0  0  0  0  0  0  0  0  0  0  0  0
    1.3501    2.6833    3.3059 H   0  0  0  0  0  0  0  0  0  0  0  0
    0.7952    4.6947    1.9193 H   0  0  0  0  0  0  0  0  0  0  0  0
   -0.1723    4.3251   -0.3403 H   0  0  0  0  0  0  0  0  0  0  0  0
    1.3213   -1.2257    1.1453 H   0  0  0  0  0  0  0  0  0  0  0  0
    0.8566   -3.4008    0.1355 H   0  0  0  0  0  0  0  0  0  0  0  0
  1  2  2  0
  2  3  1  0
  3  4  2  0
  4  5  1  0
  5  6  2  0
  6  7  1  0
  7  8  2  0
  8  9  1  0
  9 10  2  0
 10 11  1  0
 11 12  2  0
  6 13  1  0
 13 14  2  0
 14  3  1  0
 12  7  1  0
  2 15  1  0
  4 16  1  0
  5 17  1  0
  8 18  1  0
  9 19  1  0
 10 20  1  0
 11 21  1  0
 13 22  1  0
 14 23  1  0
M  END
$$$$

     RDKit          3D

 23 24  0  0  0  0  0  0  0  0999 V2000
   -4.1865   -1.0744    2.9516 O   0  0  0  0  0  0  0  0  0  0  0  0
   -3.8319   -0.1312    2.2734 C   0  0  0  0  0  0  0  0  0  0  0  0
   -2.5949   -0.0937    1.5091 C   0  0  0  0  0  0  0  0  0  0  0  0
   -2.2698    1.0238    0.7122 C   0  0  0  0  0  0  0  0  0  0  0  0
   -1.0985    1.0720   -0.0080 C   0  0  0  0  0  0  0  0  0  0  0  0
   -0.1809    0.0162    0.0434 C   0  0  0  0  0  0  0  0  0  0  0  0
    1.0938    0.0986   -0.7222 C   0  0  0  0  0  0  0  0  0  0  0  0
    2.2336   -0.6069   -0.3173 C   0  0  0  0  0  0  0  0  0  0  0  0
    3.3882   -0.5071   -1.0701 C   0  0  0  0  0  0  0  0  0  0  0  0
    3.3937    0.2949   -2.2051 C   0  0  0  0  0  0  0  0  0  0  0  0
    2.2170    0.9734   -2.5244 C   0  0  0  0  0  0  0  0  0  0  0  0
    1.0983    0.8863   -1.8032 N   0  0  0  0  0  0  0  0  0  0  0  0
   -0.5031   -1.1073    0.8195 C   0  0  0  0  0  0  0  0  0  0  0  0
   -1.6785   -1.1563    1.5331 C   0  0  0  0  0  0  0  0  0  0  0  0
   -4.4415    0.7471    2.1964 H   0  0  0  0  0  0  0  0  0  0  0  0
   -2.9666    1.8553    0.6707 H   0  0  0  0  0  0  0  0  0  0  0  0
   -0.8672    1.9299   -0.6255 H   0  0  0  0  0  0  0  0  0  0  0  0
    2.2116   -1.2050    0.5822 H   0  0  0  0  0  0  0  0  0  0  0  0
    4.2687   -1.0457   -0.7727 H   0  0  0  0  0  0  0  0  0  0  0  0
    4.2698    0.4010   -2.8181 H   0  0  0  0  0  0  0  0  0  0  0  0
    2.1738    1.6123   -3.3929 H   0  0  0  0  0  0  0  0  0  0  0  0
    0.1784   -1.9466    0.8416 H   0  0  0  0  0  0  0  0  0  0  0  0
   -1.9075   -2.0366    2.1263 H   0  0  0  0  0  0  0  0  0  0  0  0
  1  2  2  0
  2  3  1  0
  3  4  2  0
  4  5  1  0
  5  6  2  0
  6  7  1  0
  7  8  2  0
  8  9  1  0
  9 10  2  0
 10 11  1  0
 11 12  2  0
  6 13  1  0
 13 14  2  0
 14  3  1  0
 12  7  1  0
  2 15  1  0
  4 16  1  0
  5 17  1  0
  8 18  1  0
  9 19  1  0
 10 20  1  0
 11 21  1  0
 13 22  1  0
 14 23  1  0
M  END
$$$$

     RDKit          3D

 23 24  0  0  0  0  0  0  0  0999 V2000
   -5.1115    0.8738    0.6671 O   0  0  0  0  0  0  0  0  0  0  0  0
   -4.2779    0.1999    1.2384 C   0  0  0  0  0  0  0  0  0  0  0  0
   -2.8849    0.1068    0.8288 C   0  0  0  0  0  0  0  0  0  0  0  0
   -1.9627   -0.6722    1.5585 C   0  0  0  0  0  0  0  0  0  0  0  0
   -0.6425   -0.7557    1.1805 C   0  0  0  0  0  0  0  0  0  0  0  0
   -0.1699   -0.0591    0.0614 C   0  0  0  0  0  0  0  0  0  0  0  0
    1.2686   -0.1389   -0.3191 C   0  0  0  0  0  0  0  0  0  0  0  0
    1.8881    0.8970   -1.0279 C   0  0  0  0  0  0  0  0  0  0  0  0
    3.2210    0.7734   -1.3716 C   0  0  0  0  0  0  0  0  0  0  0  0
    3.9167   -0.3711   -1.0004 C   0  0  0  0  0  0  0  0  0  0  0  0
    3.2209   -1.3474   -0.2851 C   0  0  0  0  0  0  0  0  0  0  0  0
    1.9339   -1.2373    0.0532 N   0  0  0  0  0  0  0  0  0  0  0  0
   -1.0827    0.7026   -0.6816 C   0  0  0  0  0  0  0  0  0  0  0  0
   -2.4018    0.7837   -0.3025 C   0  0  0  0  0  0  0  0  0  0  0  0
   -4.5412   -0.3734    2.1048 H   0  0  0  0  0  0  0  0  0  0  0  0
   -2.3116   -1.2137    2.4324 H   0  0  0  0  0  0  0  0  0  0  0  0
    0.0543   -1.3634    1.7438 H   0  0  0  0  0  0  0  0  0  0  0  0
    1.3332    1.7868   -1.2890 H   0  0  0  0  0  0  0  0  0  0  0  0
    3.7114    1.5634   -1.9100 H   0  0  0  0  0  0  0  0  0  0  0  0
    4.9529   -0.5088   -1.2515 H   0  0  0  0  0  0  0  0  0  0  0  0
    3.7187   -2.2500    0.0303 H   0  0  0  0  0  0  0  0  0  0  0  0
   -0.7438    1.2197   -1.5699 H   0  0  0  0  0  0  0  0  0  0  0  0
   -3.0892    1.3839   -0.8906 H   0  0  0  0  0  0  0  0  0  0  0  0
  1  2  2  0
  2  3  1  0
  3  4  2  0
  4  5  1  0
  5  6  2  0
  6  7  1  0
  7  8  2  0
  8  9  1  0
  9 10  2  0
 10 11  1  0
 11 12  2  0
  6 13  1  0
 13 14  2  0
 14  3  1  0
 12  7  1  0
  2 15  1  0
  4 16  1  0
  5 17  1  0
  8 18  1  0
  9 19  1  0
 10 20  1  0
 11 21  1  0
 13 22  1  0
 14 23  1  0
M  END
$$$$

     RDKit          3D

 23 24  0  0  0  0  0  0  0  0999 V2000
   -3.3196    3.2918    2.3861 O   0  0  0  0  0  0  0  0  0  0  0  0
   -2.6243    2.3574    2.7255 C   0  0  0  0  0  0  0  0  0  0  0  0
   -1.7853    1.5892    1.8188 C   0  0  0  0  0  0  0  0  0  0  0  0
   -0.9878    0.5275    2.2873 C   0  0  0  0  0  0  0  0  0  0  0  0
   -0.1867   -0.1926    1.4394 C   0  0  0  0  0  0  0  0  0  0  0  0
   -0.1392    0.1028    0.0673 C   0  0  0  0  0  0  0  0  0  0  0  0
    0.7238   -0.6714   -0.8663 C   0  0  0  0  0  0  0  0  0  0  0  0
    1.9043   -1.2863   -0.4308 C   0  0  0  0  0  0  0  0  0  0  0  0
    2.6650   -2.0035   -1.3360 C   0  0  0  0  0  0  0  0  0  0  0  0
    2.2413   -2.0967   -2.6561 C   0  0  0  0  0  0  0  0  0  0  0  0
    1.0546   -1.4483   -3.0000 C   0  0  0  0  0  0  0  0  0  0  0  0
    0.3175   -0.7470   -2.1362 N   0  0  0  0  0  0  0  0  0  0  0  0
   -0.9394    1.1441   -0.4154 C   0  0  0  0  0  0  0  0  0  0  0  0
   -1.7375    1.8741    0.4423 C   0  0  0  0  0  0  0  0  0  0  0  0
   -2.5860    2.0497    3.7520 H   0  0  0  0  0  0  0  0  0  0  0  0
   -1.0107    0.2755    3.3410 H   0  0  0  0  0  0  0  0  0  0  0  0
    0.4143   -1.0094    1.8189 H   0  0  0  0  0  0  0  0  0  0  0  0
    2.2202   -1.1886    0.5980 H   0  0  0  0  0  0  0  0  0  0  0  0
    3.5736   -2.4782   -1.0136 H   0  0  0  0  0  0  0  0  0  0  0  0
    2.7979   -2.6488   -3.3926 H   0  0  0  0  0  0  0  0  0  0  0  0
    0.6791   -1.4969   -4.0091 H   0  0  0  0  0  0  0  0  0  0  0  0
   -0.9275    1.3683   -1.4751 H   0  0  0  0  0  0  0  0  0  0  0  0
   -2.3474    2.6873    0.0545 H   0  0  0  0  0  0  0  0  0  0  0  0
  1  2  2  0
  2  3  1  0
  3  4  2  0
  4  5  1  0
  5  6  2  0
  6  7  1  0
  7  8  2  0
  8  9  1  0
  9 10  2  0
 10 11  1  0
 11 12  2  0
  6 13  1  0
 13 14  2  0
 14  3  1  0
 12  7  1  0
  2 15  1  0
  4 16  1  0
  5 17  1  0
  8 18  1  0
  9 19  1  0
 10 20  1  0
 11 21  1  0
 13 22  1  0
 14 23  1  0
M  END
$$$$

     RDKit          3D

 23 24  0  0  0  0  0  0  0  0999 V2000
   -5.0046    1.4419    0.5258 O   0  0  0  0  0  0  0  0  0  0  0  0
   -4.3564    0.4671    0.8454 C   0  0  0  0  0  0  0  0  0  0  0  0
   -2.9381    0.3048    0.5667 C   0  0  0  0  0  0  0  0  0  0  0  0
   -2.2436   -0.8489    0.9863 C   0  0  0  0  0  0  0  0  0  0  0  0
   -0.8993   -1.0052    0.7379 C   0  0  0  0  0  0  0  0  0  0  0  0
   -0.1749   -0.0209    0.0501 C   0  0  0  0  0  0  0  0  0  0  0  0
    1.2835   -0.2086   -0.2013 C   0  0  0  0  0  0  0  0  0  0  0  0
    1.9788    0.5861   -1.1224 C   0  0  0  0  0  0  0  0  0  0  0  0
    3.3345    0.3828   -1.2992 C   0  0  0  0  0  0  0  0  0  0  0  0
    3.9776   -0.6048   -0.5633 C   0  0  0  0  0  0  0  0  0  0  0  0
    3.2062   -1.3571    0.3228 C   0  0  0  0  0  0  0  0  0  0  0  0
    1.8955   -1.1726    0.5002 N   0  0  0  0  0  0  0  0  0  0  0  0
   -0.8620    1.1267   -0.3758 C   0  0  0  0  0  0  0  0  0  0  0  0
   -2.2057    1.2803   -0.1248 C   0  0  0  0  0  0  0  0  0  0  0  0
   -4.8151   -0.3373    1.3830 H   0  0  0  0  0  0  0  0  0  0  0  0
   -2.7916   -1.6205    1.5180 H   0  0  0  0  0  0  0  0  0  0  0  0
   -0.3830   -1.8935    1.0762 H   0  0  0  0  0  0  0  0  0  0  0  0
    1.4678    1.3402   -1.7015 H   0  0  0  0  0  0  0  0  0  0  0  0
    3.8774    0.9867   -2.0014 H   0  0  0  0  0  0  0  0  0  0  0  0
    5.0316   -0.7892   -0.6665 H   0  0  0  0  0  0  0  0  0  0  0  0
    3.6590   -2.1382    0.9125 H   0  0  0  0  0  0  0  0  0  0  0  0
   -0.3258    1.9037   -0.9019 H   0  0  0  0  0  0  0  0  0  0  0  0
   -2.7119    2.1765   -0.4668 H   0  0  0  0  0  0  0  0  0  0  0  0
  1  2  2  0
  2  3  1  0
  3  4  2  0
  4  5  1  0
  5  6  2  0
  6  7  1  0
  7  8  2  0
  8  9  1  0
  9 10  2  0
 10 11  1  0
 11 12  2  0
  6 13  1  0
 13 14  2  0
 14  3  1  0
 12  7  1  0
  2 15  1  0
  4 16  1  0
  5 17  1  0
  8 18  1  0
  9 19  1  0
 10 20  1  0
 11 21  1  0
 13 22  1  0
 14 23  1  0
M  END
$$$$

     RDKit          3D

 23 24  0  0  0  0  0  0  0  0999 V2000
    4.4538   -2.0803   -1.7807 O   0  0  0  0  0  0  0  0  0  0  0  0
    4.0710   -1.6821   -0.6997 C   0  0  0  0  0  0  0  0  0  0  0  0
    2.7562   -1.1064   -0.4635 C   0  0  0  0  0  0  0  0  0  0  0  0
    2.3584   -0.6951    0.8262 C   0  0  0  0  0  0  0  0  0  0  0  0
    1.1090   -0.1646    1.0534 C   0  0  0  0  0  0  0  0  0  0  0  0
    0.1845   -0.0273    0.0086 C   0  0  0  0  0  0  0  0  0  0  0  0
   -1.1736    0.5211    0.2818 C   0  0  0  0  0  0  0  0  0  0  0  0
   -2.2475    0.2896   -0.5885 C   0  0  0  0  0  0  0  0  0  0  0  0
   -3.4805    0.8410   -0.2952 C   0  0  0  0  0  0  0  0  0  0  0  0
   -3.6308    1.6017    0.8585 C   0  0  0  0  0  0  0  0  0  0  0  0
   -2.5106    1.7674    1.6752 C   0  0  0  0  0  0  0  0  0  0  0  0
   -1.3169    1.2367    1.4043 N   0  0  0  0  0  0  0  0  0  0  0  0
    0.5800   -0.4134   -1.2805 C   0  0  0  0  0  0  0  0  0  0  0  0
    1.8318   -0.9371   -1.5056 C   0  0  0  0  0  0  0  0  0  0  0  0
    4.7055   -1.7483    0.1619 H   0  0  0  0  0  0  0  0  0  0  0  0
    3.0588   -0.8059    1.6478 H   0  0  0  0  0  0  0  0  0  0  0  0
    0.8217    0.1612    2.0448 H   0  0  0  0  0  0  0  0  0  0  0  0
   -2.1172   -0.3139   -1.4745 H   0  0  0  0  0  0  0  0  0  0  0  0
   -4.3113    0.6752   -0.9567 H   0  0  0  0  0  0  0  0  0  0  0  0
   -4.5708    2.0530    1.1189 H   0  0  0  0  0  0  0  0  0  0  0  0
   -2.5779    2.3464    2.5825 H   0  0  0  0  0  0  0  0  0  0  0  0
   -0.1069   -0.2882   -2.1074 H   0  0  0  0  0  0  0  0  0  0  0  0
    2.1135   -1.2305   -2.5114 H   0  0  0  0  0  0  0  0  0  0  0  0
  1  2  2  0
  2  3  1  0
  3  4  2  0
  4  5  1  0
  5  6  2  0
  6  7  1  0
  7  8  2  0
  8  9  1  0
  9 10  2  0
 10 11  1  0
 11 12  2  0
  6 13  1  0
 13 14  2  0
 14  3  1  0
 12  7  1  0
  2 15  1  0
  4 16  1  0
  5 17  1  0
  8 18  1  0
  9 19  1  0
 10 20  1  0
 11 21  1  0
 13 22  1  0
 14 23  1  0
M  END
$$$$

     RDKit          3D

 23 24  0  0  0  0  0  0  0  0999 V2000
   -0.2616   -4.9707    1.6672 O   0  0  0  0  0  0  0  0  0  0  0  0
    0.4175   -3.9986    1.9306 C   0  0  0  0  0  0  0  0  0  0  0  0
    0.2813   -2.7067    1.2765 C   0  0  0  0  0  0  0  0  0  0  0  0
    1.1041   -1.6208    1.6308 C   0  0  0  0  0  0  0  0  0  0  0  0
    0.9742   -0.3992    1.0228 C   0  0  0  0  0  0  0  0  0  0  0  0
    0.0065   -0.1835    0.0285 C   0  0  0  0  0  0  0  0  0  0  0  0
   -0.1563    1.1440   -0.6289 C   0  0  0  0  0  0  0  0  0  0  0  0
    0.2494    2.3312   -0.0049 C   0  0  0  0  0  0  0  0  0  0  0  0
    0.0752    3.5320   -0.6675 C   0  0  0  0  0  0  0  0  0  0  0  0
   -0.4967    3.5337   -1.9344 C   0  0  0  0  0  0  0  0  0  0  0  0
   -0.8768    2.3061   -2.4750 C   0  0  0  0  0  0  0  0  0  0  0  0
   -0.7163    1.1422   -1.8425 N   0  0  0  0  0  0  0  0  0  0  0  0
   -0.8073   -1.2595   -0.3443 C   0  0  0  0  0  0  0  0  0  0  0  0
   -0.6736   -2.4893    0.2676 C   0  0  0  0  0  0  0  0  0  0  0  0
    1.1768   -4.0524    2.6838 H   0  0  0  0  0  0  0  0  0  0  0  0
    1.8556   -1.7560    2.3986 H   0  0  0  0  0  0  0  0  0  0  0  0
    1.6316    0.4152    1.2963 H   0  0  0  0  0  0  0  0  0  0  0  0
    0.6753    2.3118    0.9865 H   0  0  0  0  0  0  0  0  0  0  0  0
    0.3774    4.4512   -0.2000 H   0  0  0  0  0  0  0  0  0  0  0  0
   -0.6494    4.4454   -2.4840 H   0  0  0  0  0  0  0  0  0  0  0  0
   -1.3309    2.2550   -3.4511 H   0  0  0  0  0  0  0  0  0  0  0  0
   -1.5422   -1.1156   -1.1244 H   0  0  0  0  0  0  0  0  0  0  0  0
   -1.3137   -3.3154   -0.0322 H   0  0  0  0  0  0  0  0  0  0  0  0
  1  2  2  0
  2  3  1  0
  3  4  2  0
  4  5  1  0
  5  6  2  0
  6  7  1  0
  7  8  2  0
  8  9  1  0
  9 10  2  0
 10 11  1  0
 11 12  2  0
  6 13  1  0
 13 14  2  0
 14  3  1  0
 12  7  1  0
  2 15  1  0
  4 16  1  0
  5 17  1  0
  8 18  1  0
  9 19  1  0
 10 20  1  0
 11 21  1  0
 13 22  1  0
 14 23  1  0
M  END
$$$$

     RDKit          3D

 23 24  0  0  0  0  0  0  0  0999 V2000
    4.8117    0.4588    1.9932 O   0  0  0  0  0  0  0  0  0  0  0  0
    3.9102    1.2355    1.7489 C   0  0  0  0  0  0  0  0  0  0  0  0
    2.6278    0.8400    1.1874 C   0  0  0  0  0  0  0  0  0  0  0  0
    1.6155    1.7919    0.9436 C   0  0  0  0  0  0  0  0  0  0  0  0
    0.3989    1.4209    0.4179 C   0  0  0  0  0  0  0  0  0  0  0  0
    0.1326    0.0854    0.0925 C   0  0  0  0  0  0  0  0  0  0  0  0
   -1.1881   -0.2913   -0.4815 C   0  0  0  0  0  0  0  0  0  0  0  0
   -1.3312   -1.4223   -1.2922 C   0  0  0  0  0  0  0  0  0  0  0  0
   -2.5816   -1.7329   -1.7936 C   0  0  0  0  0  0  0  0  0  0  0  0
   -3.6654   -0.9205   -1.4798 C   0  0  0  0  0  0  0  0  0  0  0  0
   -3.4283    0.1884   -0.6663 C   0  0  0  0  0  0  0  0  0  0  0  0
   -2.2235    0.5046   -0.1877 N   0  0  0  0  0  0  0  0  0  0  0  0
    1.1337   -0.8679    0.3321 C   0  0  0  0  0  0  0  0  0  0  0  0
    2.3451   -0.4964    0.8666 C   0  0  0  0  0  0  0  0  0  0  0  0
    4.0256    2.2834    1.9445 H   0  0  0  0  0  0  0  0  0  0  0  0
    1.8105    2.8329    1.1803 H   0  0  0  0  0  0  0  0  0  0  0  0
   -0.3735    2.1589    0.2408 H   0  0  0  0  0  0  0  0  0  0  0  0
   -0.4731   -2.0324   -1.5343 H   0  0  0  0  0  0  0  0  0  0  0  0
   -2.7033   -2.5957   -2.4221 H   0  0  0  0  0  0  0  0  0  0  0  0
   -4.6551   -1.1292   -1.8446 H   0  0  0  0  0  0  0  0  0  0  0  0
   -4.2366    0.8485   -0.3906 H   0  0  0  0  0  0  0  0  0  0  0  0
    0.9451   -1.9069    0.0989 H   0  0  0  0  0  0  0  0  0  0  0  0
    3.1030   -1.2536    1.0459 H   0  0  0  0  0  0  0  0  0  0  0  0
  1  2  2  0
  2  3  1  0
  3  4  2  0
  4  5  1  0
  5  6  2  0
  6  7  1  0
  7  8  2  0
  8  9  1  0
  9 10  2  0
 10 11  1  0
 11 12  2  0
  6 13  1  0
 13 14  2  0
 14  3  1  0
 12  7  1  0
  2 15  1  0
  4 16  1  0
  5 17  1  0
  8 18  1  0
  9 19  1  0
 10 20  1  0
 11 21  1  0
 13 22  1  0
 14 23  1  0
M  END
$$$$
