
     RDKit          3D

 21 22  0  0  0  0  0  0  0  0999 V2000
   -2.2342   -0.4708   -2.6278 C   0  0  0  0  0  0  0  0  0  0  0  0
   -1.1328    0.3625   -2.8060 C   0  0  0  0  0  0  0  0  0  0  0  0
   -0.2196    0.5521   -1.7745 C   0  0  0  0  0  0  0  0  0  0  0  0
   -0.4018   -0.0796   -0.5418 C   0  0  0  0  0  0  0  0  0  0  0  0
    0.5835    0.1457    0.5563 C   0  0  0  0  0  0  0  0  0  0  0  0
    0.2312   -0.0583    1.8979 C   0  0  0  0  0  0  0  0  0  0  0  0
    1.1883    0.1421    2.8756 C   0  0  0  0  0  0  0  0  0  0  0  0
    2.4647    0.5451    2.5130 C   0  0  0  0  0  0  0  0  0  0  0  0
    2.7195    0.7383    1.1549 C   0  0  0  0  0  0  0  0  0  0  0  0
    1.8096    0.5550    0.2062 N   0  0  0  0  0  0  0  0  0  0  0  0
   -1.5075   -0.9260   -0.3755 C   0  0  0  0  0  0  0  0  0  0  0  0
   -2.4135   -1.1129   -1.4114 C   0  0  0  0  0  0  0  0  0  0  0  0
   -2.9407   -0.6146   -3.4302 H   0  0  0  0  0  0  0  0  0  0  0  0
   -0.9791    0.8651   -3.7529 H   0  0  0  0  0  0  0  0  0  0  0  0
    0.6391    1.1902   -1.9189 H   0  0  0  0  0  0  0  0  0  0  0  0
   -0.7716   -0.3530    2.1596 H   0  0  0  0  0  0  0  0  0  0  0  0
    0.9328   -0.0147    3.9099 H   0  0  0  0  0  0  0  0  0  0  0  0
    3.2388    0.7032    3.2437 H   0  0  0  0  0  0  0  0  0  0  0  0
    3.6985    1.0575    0.8256 H   0  0  0  0  0  0  0  0  0  0  0  0
   -1.6466   -1.4568    0.5543 H   0  0  0  0  0  0  0  0  0  0  0  0
   -3.2586   -1.7701   -1.2579 H   0  0  0  0  0  0  0  0  0  0  0  0
  1  2  2  0
  2  3  1  0
  3  4  2  0
  4  5  1  0
  5  6  2  0
  6  7  1  0
  7  8  2  0
  8  9  1  0
  9 10  2  0
  4 11  1  0
 11 12  2  0
 12  1  1  0
 10  5  1  0
  1 13  1  0
  2 14  1  0
  3 15  1  0
  6 16  1  0
  7 17  1  0
  8 18  1  0
  9 19  1  0
 11 20  1  0
 12 21  1  0
M  END
$$$$

     RDKit          3D

 21 22  0  0  0  0  0  0  0  0999 V2000
   -3.1928   -0.4848   -1.3094 C   0  0  0  0  0  0  0  0  0  0  0  0
   -2.2487    0.2327   -2.0407 C   0  0  0  0  0  0  0  0  0  0  0  0
   -0.9651    0.4225   -1.5397 C   0  0  0  0  0  0  0  0  0  0  0  0
   -0.6109   -0.0837   -0.2858 C   0  0  0  0  0  0  0  0  0  0  0  0
    0.7693    0.1468    0.2362 C   0  0  0  0  0  0  0  0  0  0  0  0
    1.0740    0.0119    1.5986 C   0  0  0  0  0  0  0  0  0  0  0  0
    2.3792    0.2123    2.0132 C   0  0  0  0  0  0  0  0  0  0  0  0
    3.3510    0.5427    1.0809 C   0  0  0  0  0  0  0  0  0  0  0  0
    2.9520    0.6687   -0.2492 C   0  0  0  0  0  0  0  0  0  0  0  0
    1.7034    0.4906   -0.6610 N   0  0  0  0  0  0  0  0  0  0  0  0
   -1.5664   -0.8119    0.4377 C   0  0  0  0  0  0  0  0  0  0  0  0
   -2.8432   -1.0080   -0.0737 C   0  0  0  0  0  0  0  0  0  0  0  0
   -4.1871   -0.6294   -1.7023 H   0  0  0  0  0  0  0  0  0  0  0  0
   -2.5120    0.6452   -3.0064 H   0  0  0  0  0  0  0  0  0  0  0  0
   -0.2262    0.9591   -2.1161 H   0  0  0  0  0  0  0  0  0  0  0  0
    0.3047   -0.2330    2.3124 H   0  0  0  0  0  0  0  0  0  0  0  0
    2.6305    0.1101    3.0548 H   0  0  0  0  0  0  0  0  0  0  0  0
    4.3785    0.6959    1.3622 H   0  0  0  0  0  0  0  0  0  0  0  0
    3.6737    0.9277   -1.0109 H   0  0  0  0  0  0  0  0  0  0  0  0
   -1.3063   -1.2390    1.3946 H   0  0  0  0  0  0  0  0  0  0  0  0
   -3.5575   -1.5765    0.5047 H   0  0  0  0  0  0  0  0  0  0  0  0
  1  2  2  0
  2  3  1  0
  3  4  2  0
  4  5  1  0
  5  6  2  0
  6  7  1  0
  7  8  2  0
  8  9  1  0
  9 10  2  0
  4 11  1  0
 11 12  2  0
 12  1  1  0
 10  5  1  0
  1 13  1  0
  2 14  1  0
  3 15  1  0
  6 16  1  0
  7 17  1  0
  8 18  1  0
  9 19  1  0
 11 20  1  0
 12 21  1  0
M  END
$$$$

     RDKit          3D

 21 22  0  0  0  0  0  0  0  0999 V2000
   -2.6907    2.2116   -0.2179 C   0  0  0  0  0  0  0  0  0  0  0  0
   -1.4437    2.6704    0.2022 C   0  0  0  0  0  0  0  0  0  0  0  0
   -0.3635    1.7989    0.2922 C   0  0  0  0  0  0  0  0  0  0  0  0
   -0.5123    0.4466   -0.0339 C   0  0  0  0  0  0  0  0  0  0  0  0
    0.6726   -0.4610    0.0757 C   0  0  0  0  0  0  0  0  0  0  0  0
    0.5883   -1.8284   -0.2282 C   0  0  0  0  0  0  0  0  0  0  0  0
    1.7239   -2.6100   -0.1124 C   0  0  0  0  0  0  0  0  0  0  0  0
    2.9165   -2.0319    0.3014 C   0  0  0  0  0  0  0  0  0  0  0  0
    2.9053   -0.6672    0.5929 C   0  0  0  0  0  0  0  0  0  0  0  0
    1.8278    0.0960    0.4812 N   0  0  0  0  0  0  0  0  0  0  0  0
   -1.7744   -0.0045   -0.4537 C   0  0  0  0  0  0  0  0  0  0  0  0
   -2.8480    0.8728   -0.5424 C   0  0  0  0  0  0  0  0  0  0  0  0
   -3.5248    2.8919   -0.2888 H   0  0  0  0  0  0  0  0  0  0  0  0
   -1.3103    3.7122    0.4610 H   0  0  0  0  0  0  0  0  0  0  0  0
    0.5997    2.1601    0.6200 H   0  0  0  0  0  0  0  0  0  0  0  0
   -0.3439   -2.2710   -0.5411 H   0  0  0  0  0  0  0  0  0  0  0  0
    1.6742   -3.6581   -0.3491 H   0  0  0  0  0  0  0  0  0  0  0  0
    3.8204   -2.6057    0.3997 H   0  0  0  0  0  0  0  0  0  0  0  0
    3.8102   -0.1772    0.9257 H   0  0  0  0  0  0  0  0  0  0  0  0
   -1.9204   -1.0427   -0.7158 H   0  0  0  0  0  0  0  0  0  0  0  0
   -3.8069    0.4972   -0.8686 H   0  0  0  0  0  0  0  0  0  0  0  0
  1  2  2  0
  2  3  1  0
  3  4  2  0
  4  5  1  0
  5  6  2  0
  6  7  1  0
  7  8  2  0
  8  9  1  0
  9 10  2  0
  4 11  1  0
 11 12  2  0
 12  1  1  0
 10  5  1  0
  1 13  1  0
  2 14  1  0
  3 15  1  0
  6 16  1  0
  7 17  1  0
  8 18  1  0
  9 19  1  0
 11 20  1  0
 12 21  1  0
M  END
$$$$

     RDKit          3D

 21 22  0  0  0  0  0  0  0  0999 V2000
   -1.1467   -3.1327    0.9915 C   0  0  0  0  0  0  0  0  0  0  0  0
   -0.4027   -2.3597    1.8806 C   0  0  0  0  0  0  0  0  0  0  0  0
    0.0475   -1.0977    1.5086 C   0  0  0  0  0  0  0  0  0  0  0  0
   -0.2296   -0.5947    0.2352 C   0  0  0  0  0  0  0  0  0  0  0  0
    0.2729    0.7571   -0.1471 C   0  0  0  0  0  0  0  0  0  0  0  0
    0.4790    1.1021   -1.4902 C   0  0  0  0  0  0  0  0  0  0  0  0
    0.9455    2.3705   -1.7879 C   0  0  0  0  0  0  0  0  0  0  0  0
    1.1884    3.2694   -0.7595 C   0  0  0  0  0  0  0  0  0  0  0  0
    0.9542    2.8357    0.5455 C   0  0  0  0  0  0  0  0  0  0  0  0
    0.5233    1.6174    0.8482 N   0  0  0  0  0  0  0  0  0  0  0  0
   -0.9866   -1.3760   -0.6491 C   0  0  0  0  0  0  0  0  0  0  0  0
   -1.4347   -2.6345   -0.2710 C   0  0  0  0  0  0  0  0  0  0  0  0
   -1.4919   -4.1126    1.2826 H   0  0  0  0  0  0  0  0  0  0  0  0
   -0.1749   -2.7386    2.8694 H   0  0  0  0  0  0  0  0  0  0  0  0
    0.6203   -0.4941    2.1974 H   0  0  0  0  0  0  0  0  0  0  0  0
    0.2946    0.3805   -2.2702 H   0  0  0  0  0  0  0  0  0  0  0  0
    1.1132    2.6518   -2.8142 H   0  0  0  0  0  0  0  0  0  0  0  0
    1.5481    4.2656   -0.9495 H   0  0  0  0  0  0  0  0  0  0  0  0
    1.1301    3.5012    1.3806 H   0  0  0  0  0  0  0  0  0  0  0  0
   -1.2357   -0.9920   -1.6276 H   0  0  0  0  0  0  0  0  0  0  0  0
   -2.0144   -3.2186   -0.9730 H   0  0  0  0  0  0  0  0  0  0  0  0
  1  2  2  0
  2  3  1  0
  3  4  2  0
  4  5  1  0
  5  6  2  0
  6  7  1  0
  7  8  2  0
  8  9  1  0
  9 10  2  0
  4 11  1  0
 11 12  2  0
 12  1  1  0
 10  5  1  0
  1 13  1  0
  2 14  1  0
  3 15  1  0
  6 16  1  0
  7 17  1  0
  8 18  1  0
  9 19  1  0
 11 20  1  0
 12 21  1  0
M  END
$$$$

     RDKit          3D

 21 22  0  0  0  0  0  0  0  0999 V2000
    0.5398    3.4340   -0.2585 C   0  0  0  0  0  0  0  0  0  0  0  0
    1.3156    2.5546   -1.0099 C   0  0  0  0  0  0  0  0  0  0  0  0
    1.1267    1.1805   -0.9048 C   0  0  0  0  0  0  0  0  0  0  0  0
    0.1462    0.6622   -0.0535 C   0  0  0  0  0  0  0  0  0  0  0  0
   -0.0509   -0.8172    0.0254 C   0  0  0  0  0  0  0  0  0  0  0  0
   -1.2199   -1.3737    0.5668 C   0  0  0  0  0  0  0  0  0  0  0  0
   -1.3443   -2.7510    0.6170 C   0  0  0  0  0  0  0  0  0  0  0  0
   -0.3158   -3.5488    0.1368 C   0  0  0  0  0  0  0  0  0  0  0  0
    0.8052   -2.9077   -0.3911 C   0  0  0  0  0  0  0  0  0  0  0  0
    0.9354   -1.5872   -0.4543 N   0  0  0  0  0  0  0  0  0  0  0  0
   -0.6210    1.5555    0.7078 C   0  0  0  0  0  0  0  0  0  0  0  0
   -0.4225    2.9262    0.6015 C   0  0  0  0  0  0  0  0  0  0  0  0
    0.6880    4.4992   -0.3432 H   0  0  0  0  0  0  0  0  0  0  0  0
    2.0700    2.9391   -1.6840 H   0  0  0  0  0  0  0  0  0  0  0  0
    1.7416    0.5024   -1.4769 H   0  0  0  0  0  0  0  0  0  0  0  0
   -2.0110   -0.7374    0.9308 H   0  0  0  0  0  0  0  0  0  0  0  0
   -2.2408   -3.1913    1.0183 H   0  0  0  0  0  0  0  0  0  0  0  0
   -0.3694   -4.6229    0.1663 H   0  0  0  0  0  0  0  0  0  0  0  0
    1.6269   -3.4876   -0.7854 H   0  0  0  0  0  0  0  0  0  0  0  0
   -1.3725    1.1807    1.3885 H   0  0  0  0  0  0  0  0  0  0  0  0
   -1.0272    3.5903    1.2024 H   0  0  0  0  0  0  0  0  0  0  0  0
  1  2  2  0
  2  3  1  0
  3  4  2  0
  4  5  1  0
  5  6  2  0
  6  7  1  0
  7  8  2  0
  8  9  1  0
  9 10  2  0
  4 11  1  0
 11 12  2  0
 12  1  1  0
 10  5  1  0
  1 13  1  0
  2 14  1  0
  3 15  1  0
  6 16  1  0
  7 17  1  0
  8 18  1  0
  9 19  1  0
 11 20  1  0
 12 21  1  0
M  END
$$$$

     RDKit          3D

 21 22  0  0  0  0  0  0  0  0999 V2000
    3.1855    1.0117    0.9669 C   0  0  0  0  0  0  0  0  0  0  0  0
    2.7261    1.3205   -0.3118 C   0  0  0  0  0  0  0  0  0  0  0  0
    1.4626    0.9118   -0.7254 C   0  0  0  0  0  0  0  0  0  0  0  0
    0.6361    0.1930    0.1398 C   0  0  0  0  0  0  0  0  0  0  0  0
   -0.7199   -0.2328   -0.3162 C   0  0  0  0  0  0  0  0  0  0  0  0
   -1.7682   -0.3987    0.5988 C   0  0  0  0  0  0  0  0  0  0  0  0
   -3.0002   -0.8108    0.1275 C   0  0  0  0  0  0  0  0  0  0  0  0
   -3.1721   -1.0460   -1.2292 C   0  0  0  0  0  0  0  0  0  0  0  0
   -2.0717   -0.8482   -2.0629 C   0  0  0  0  0  0  0  0  0  0  0  0
   -0.8855   -0.4390   -1.6286 N   0  0  0  0  0  0  0  0  0  0  0  0
    1.1082   -0.1204    1.4216 C   0  0  0  0  0  0  0  0  0  0  0  0
    2.3710    0.2907    1.8284 C   0  0  0  0  0  0  0  0  0  0  0  0
    4.1681    1.3288    1.2816 H   0  0  0  0  0  0  0  0  0  0  0  0
    3.3524    1.8866   -0.9889 H   0  0  0  0  0  0  0  0  0  0  0  0
    1.1114    1.1433   -1.7206 H   0  0  0  0  0  0  0  0  0  0  0  0
   -1.6144   -0.1936    1.6464 H   0  0  0  0  0  0  0  0  0  0  0  0
   -3.8199   -0.9404    0.8136 H   0  0  0  0  0  0  0  0  0  0  0  0
   -4.1135   -1.3737   -1.6333 H   0  0  0  0  0  0  0  0  0  0  0  0
   -2.1581   -1.0248   -3.1267 H   0  0  0  0  0  0  0  0  0  0  0  0
    0.4898   -0.6953    2.0964 H   0  0  0  0  0  0  0  0  0  0  0  0
    2.7124    0.0373    2.8225 H   0  0  0  0  0  0  0  0  0  0  0  0
  1  2  2  0
  2  3  1  0
  3  4  2  0
  4  5  1  0
  5  6  2  0
  6  7  1  0
  7  8  2  0
  8  9  1  0
  9 10  2  0
  4 11  1  0
 11 12  2  0
 12  1  1  0
 10  5  1  0
  1 13  1  0
  2 14  1  0
  3 15  1  0
  6 16  1  0
  7 17  1  0
  8 18  1  0
  9 19  1  0
 11 20  1  0
 12 21  1  0
M  END
$$$$

     RDKit          3D

 21 22  0  0  0  0  0  0  0  0999 V2000
    2.0934    1.0953   -2.5602 C   0  0  0  0  0  0  0  0  0  0  0  0
    1.2749   -0.0125   -2.7647 C   0  0  0  0  0  0  0  0  0  0  0  0
    0.4502   -0.4778   -1.7460 C   0  0  0  0  0  0  0  0  0  0  0  0
    0.4179    0.1696   -0.5081 C   0  0  0  0  0  0  0  0  0  0  0  0
   -0.4915   -0.3358    0.5643 C   0  0  0  0  0  0  0  0  0  0  0  0
   -0.9105    0.4945    1.6151 C   0  0  0  0  0  0  0  0  0  0  0  0
   -1.7538   -0.0262    2.5805 C   0  0  0  0  0  0  0  0  0  0  0  0
   -2.1604   -1.3503    2.4913 C   0  0  0  0  0  0  0  0  0  0  0  0
   -1.6975   -2.0964    1.4064 C   0  0  0  0  0  0  0  0  0  0  0  0
   -0.8963   -1.6090    0.4664 N   0  0  0  0  0  0  0  0  0  0  0  0
    1.2521    1.2769   -0.3082 C   0  0  0  0  0  0  0  0  0  0  0  0
    2.0821    1.7295   -1.3269 C   0  0  0  0  0  0  0  0  0  0  0  0
    2.7342    1.4507   -3.3524 H   0  0  0  0  0  0  0  0  0  0  0  0
    1.2757   -0.5146   -3.7237 H   0  0  0  0  0  0  0  0  0  0  0  0
   -0.1673   -1.3487   -1.9021 H   0  0  0  0  0  0  0  0  0  0  0  0
   -0.5900    1.5240    1.6579 H   0  0  0  0  0  0  0  0  0  0  0  0
   -2.0956    0.5995    3.3877 H   0  0  0  0  0  0  0  0  0  0  0  0
   -2.8087   -1.7952    3.2252 H   0  0  0  0  0  0  0  0  0  0  0  0
   -1.9937   -3.1298    1.2905 H   0  0  0  0  0  0  0  0  0  0  0  0
    1.2617    1.7773    0.6488 H   0  0  0  0  0  0  0  0  0  0  0  0
    2.7231    2.5789   -1.1420 H   0  0  0  0  0  0  0  0  0  0  0  0
  1  2  2  0
  2  3  1  0
  3  4  2  0
  4  5  1  0
  5  6  2  0
  6  7  1  0
  7  8  2  0
  8  9  1  0
  9 10  2  0
  4 11  1  0
 11 12  2  0
 12  1  1  0
 10  5  1  0
  1 13  1  0
  2 14  1  0
  3 15  1  0
  6 16  1  0
  7 17  1  0
  8 18  1  0
  9 19  1  0
 11 20  1  0
 12 21  1  0
M  END
$$$$

     RDKit          3D

 21 22  0  0  0  0  0  0  0  0999 V2000
   -0.3183    0.8330   -3.3689 C   0  0  0  0  0  0  0  0  0  0  0  0
   -1.1219   -0.1668   -2.8251 C   0  0  0  0  0  0  0  0  0  0  0  0
   -1.0001   -0.5178   -1.4851 C   0  0  0  0  0  0  0  0  0  0  0  0
   -0.0779    0.1344   -0.6620 C   0  0  0  0  0  0  0  0  0  0  0  0
    0.0311   -0.2656    0.7739 C   0  0  0  0  0  0  0  0  0  0  0  0
    0.6240    0.5787    1.7231 C   0  0  0  0  0  0  0  0  0  0  0  0
    0.7099    0.1498    3.0364 C   0  0  0  0  0  0  0  0  0  0  0  0
    0.2090   -1.0962    3.3837 C   0  0  0  0  0  0  0  0  0  0  0  0
   -0.3720   -1.8632    2.3737 C   0  0  0  0  0  0  0  0  0  0  0  0
   -0.4700   -1.4633    1.1118 N   0  0  0  0  0  0  0  0  0  0  0  0
    0.7264    1.1399   -1.2182 C   0  0  0  0  0  0  0  0  0  0  0  0
    0.6054    1.4791   -2.5598 C   0  0  0  0  0  0  0  0  0  0  0  0
   -0.4117    1.0990   -4.4104 H   0  0  0  0  0  0  0  0  0  0  0  0
   -1.8479   -0.6762   -3.4457 H   0  0  0  0  0  0  0  0  0  0  0  0
   -1.6193   -1.2980   -1.0677 H   0  0  0  0  0  0  0  0  0  0  0  0
    0.9961    1.5488    1.4361 H   0  0  0  0  0  0  0  0  0  0  0  0
    1.1575    0.7889    3.7778 H   0  0  0  0  0  0  0  0  0  0  0  0
    0.2598   -1.4678    4.3919 H   0  0  0  0  0  0  0  0  0  0  0  0
   -0.7761   -2.8407    2.6009 H   0  0  0  0  0  0  0  0  0  0  0  0
    1.4517    1.6528   -0.6021 H   0  0  0  0  0  0  0  0  0  0  0  0
    1.2444    2.2513   -2.9643 H   0  0  0  0  0  0  0  0  0  0  0  0
  1  2  2  0
  2  3  1  0
  3  4  2  0
  4  5  1  0
  5  6  2  0
  6  7  1  0
  7  8  2  0
  8  9  1  0
  9 10  2  0
  4 11  1  0
 11 12  2  0
 12  1  1  0
 10  5  1  0
  1 13  1  0
  2 14  1  0
  3 15  1  0
  6 16  1  0
  7 17  1  0
  8 18  1  0
  9 19  1  0
 11 20  1  0
 12 21  1  0
M  END
$$$$

     RDKit          3D

 21 22  0  0  0  0  0  0  0  0999 V2000
   -3.0006    1.4515   -1.0219 C   0  0  0  0  0  0  0  0  0  0  0  0
   -3.0049    0.4717   -0.0326 C   0  0  0  0  0  0  0  0  0  0  0  0
   -1.8138   -0.1030    0.3957 C   0  0  0  0  0  0  0  0  0  0  0  0
   -0.5952    0.2832   -0.1708 C   0  0  0  0  0  0  0  0  0  0  0  0
    0.6673   -0.3634    0.3016 C   0  0  0  0  0  0  0  0  0  0  0  0
    1.8665   -0.2659   -0.4212 C   0  0  0  0  0  0  0  0  0  0  0  0
    2.9980   -0.8930    0.0726 C   0  0  0  0  0  0  0  0  0  0  0  0
    2.9262   -1.5962    1.2663 C   0  0  0  0  0  0  0  0  0  0  0  0
    1.6927   -1.6395    1.9152 C   0  0  0  0  0  0  0  0  0  0  0  0
    0.5978   -1.0526    1.4502 N   0  0  0  0  0  0  0  0  0  0  0  0
   -0.6022    1.2765   -1.1615 C   0  0  0  0  0  0  0  0  0  0  0  0
   -1.7963    1.8496   -1.5801 C   0  0  0  0  0  0  0  0  0  0  0  0
   -3.9265    1.8949   -1.3524 H   0  0  0  0  0  0  0  0  0  0  0  0
   -3.9395    0.1551    0.4108 H   0  0  0  0  0  0  0  0  0  0  0  0
   -1.8221   -0.8585    1.1671 H   0  0  0  0  0  0  0  0  0  0  0  0
    1.9064    0.2739   -1.3535 H   0  0  0  0  0  0  0  0  0  0  0  0
    3.9241   -0.8311   -0.4720 H   0  0  0  0  0  0  0  0  0  0  0  0
    3.7828   -2.0963    1.6832 H   0  0  0  0  0  0  0  0  0  0  0  0
    1.5866   -2.1779    2.8472 H   0  0  0  0  0  0  0  0  0  0  0  0
    0.3272    1.6109   -1.5968 H   0  0  0  0  0  0  0  0  0  0  0  0
   -1.7747    2.6100   -2.3471 H   0  0  0  0  0  0  0  0  0  0  0  0
  1  2  2  0
  2  3  1  0
  3  4  2  0
  4  5  1  0
  5  6  2  0
  6  7  1  0
  7  8  2  0
  8  9  1  0
  9 10  2  0
  4 11  1  0
 11 12  2  0
 12  1  1  0
 10  5  1  0
  1 13  1  0
  2 14  1  0
  3 15  1  0
  6 16  1  0
  7 17  1  0
  8 18  1  0
  9 19  1  0
 11 20  1  0
 12 21  1  0
M  END
$$$$

     RDKit          3D

 21 22  0  0  0  0  0  0  0  0999 V2000
    1.4491   -0.5445    3.1269 C   0  0  0  0  0  0  0  0  0  0  0  0
    0.1097   -0.8677    2.9162 C   0  0  0  0  0  0  0  0  0  0  0  0
   -0.4844   -0.6485    1.6777 C   0  0  0  0  0  0  0  0  0  0  0  0
    0.2567   -0.1059    0.6216 C   0  0  0  0  0  0  0  0  0  0  0  0
   -0.4063    0.1034   -0.7037 C   0  0  0  0  0  0  0  0  0  0  0  0
    0.2910    0.6132   -1.8105 C   0  0  0  0  0  0  0  0  0  0  0  0
   -0.3827    0.7825   -3.0075 C   0  0  0  0  0  0  0  0  0  0  0  0
   -1.7244    0.4411   -3.0932 C   0  0  0  0  0  0  0  0  0  0  0  0
   -2.3374   -0.0560   -1.9431 C   0  0  0  0  0  0  0  0  0  0  0  0
   -1.7057   -0.2256   -0.7884 N   0  0  0  0  0  0  0  0  0  0  0  0
    1.6038    0.2216    0.8496 C   0  0  0  0  0  0  0  0  0  0  0  0
    2.1883    0.0019    2.0899 C   0  0  0  0  0  0  0  0  0  0  0  0
    1.9040   -0.7170    4.0895 H   0  0  0  0  0  0  0  0  0  0  0  0
   -0.4739   -1.2938    3.7216 H   0  0  0  0  0  0  0  0  0  0  0  0
   -1.5245   -0.8942    1.5237 H   0  0  0  0  0  0  0  0  0  0  0  0
    1.3328    0.8791   -1.7327 H   0  0  0  0  0  0  0  0  0  0  0  0
    0.1399    1.1731   -3.8624 H   0  0  0  0  0  0  0  0  0  0  0  0
   -2.2812    0.5549   -4.0062 H   0  0  0  0  0  0  0  0  0  0  0  0
   -3.3823   -0.3301   -1.9620 H   0  0  0  0  0  0  0  0  0  0  0  0
    2.2013    0.6462    0.0573 H   0  0  0  0  0  0  0  0  0  0  0  0
    3.2262    0.2663    2.2360 H   0  0  0  0  0  0  0  0  0  0  0  0
  1  2  2  0
  2  3  1  0
  3  4  2  0
  4  5  1  0
  5  6  2  0
  6  7  1  0
  7  8  2  0
  8  9  1  0
  9 10  2  0
  4 11  1  0
 11 12  2  0
 12  1  1  0
 10  5  1  0
  1 13  1  0
  2 14  1  0
  3 15  1  0
  6 16  1  0
  7 17  1  0
  8 18  1  0
  9 19  1  0
 11 20  1  0
 12 21  1  0
M  END
$$$$

     RDKit          3D

 21 22  0  0  0  0  0  0  0  0999 V2000
   -2.8658   -1.8620    0.6623 C   0  0  0  0  0  0  0  0  0  0  0  0
   -2.1199   -1.3477    1.7204 C   0  0  0  0  0  0  0  0  0  0  0  0
   -0.9921   -0.5721    1.4756 C   0  0  0  0  0  0  0  0  0  0  0  0
   -0.5746   -0.3238    0.1649 C   0  0  0  0  0  0  0  0  0  0  0  0
    0.6627    0.4749   -0.0759 C   0  0  0  0  0  0  0  0  0  0  0  0
    1.3641    0.3828   -1.2874 C   0  0  0  0  0  0  0  0  0  0  0  0
    2.5048    1.1472   -1.4555 C   0  0  0  0  0  0  0  0  0  0  0  0
    2.9260    1.9840   -0.4320 C   0  0  0  0  0  0  0  0  0  0  0  0
    2.1682    2.0032    0.7391 C   0  0  0  0  0  0  0  0  0  0  0  0
    1.0758    1.2715    0.9177 N   0  0  0  0  0  0  0  0  0  0  0  0
   -1.3400   -0.8329   -0.8928 C   0  0  0  0  0  0  0  0  0  0  0  0
   -2.4746   -1.5939   -0.6407 C   0  0  0  0  0  0  0  0  0  0  0  0
   -3.7382   -2.4661    0.8583 H   0  0  0  0  0  0  0  0  0  0  0  0
   -2.4180   -1.5490    2.7419 H   0  0  0  0  0  0  0  0  0  0  0  0
   -0.4282   -0.1531    2.2962 H   0  0  0  0  0  0  0  0  0  0  0  0
    1.0311   -0.2886   -2.0645 H   0  0  0  0  0  0  0  0  0  0  0  0
    3.0571    1.0874   -2.3784 H   0  0  0  0  0  0  0  0  0  0  0  0
    3.8050    2.5973   -0.5262 H   0  0  0  0  0  0  0  0  0  0  0  0
    2.4595    2.6364    1.5655 H   0  0  0  0  0  0  0  0  0  0  0  0
   -1.0558   -0.6223   -1.9127 H   0  0  0  0  0  0  0  0  0  0  0  0
   -3.0471   -1.9730   -1.4759 H   0  0  0  0  0  0  0  0  0  0  0  0
  1  2  2  0
  2  3  1  0
  3  4  2  0
  4  5  1  0
  5  6  2  0
  6  7  1  0
  7  8  2  0
  8  9  1  0
  9 10  2  0
  4 11  1  0
 11 12  2  0
 12  1  1  0
 10  5  1  0
  1 13  1  0
  2 14  1  0
  3 15  1  0
  6 16  1  0
  7 17  1  0
  8 18  1  0
  9 19  1  0
 11 20  1  0
 12 21  1  0
M  END
$$$$

     RDKit          3D

 21 22  0  0  0  0  0  0  0  0999 V2000
   -0.6065    3.2527    1.1006 C   0  0  0  0  0  0  0  0  0  0  0  0
    0.5134    2.5637    1.5620 C   0  0  0  0  0  0  0  0  0  0  0  0
    0.7672    1.2623    1.1404 C   0  0  0  0  0  0  0  0  0  0  0  0
   -0.0979    0.6274    0.2435 C   0  0  0  0  0  0  0  0  0  0  0  0
    0.2015   -0.7691   -0.2006 C   0  0  0  0  0  0  0  0  0  0  0  0
   -0.4673   -1.3560   -1.2864 C   0  0  0  0  0  0  0  0  0  0  0  0
   -0.1524   -2.6543   -1.6452 C   0  0  0  0  0  0  0  0  0  0  0  0
    0.8117   -3.3472   -0.9273 C   0  0  0  0  0  0  0  0  0  0  0  0
    1.4286   -2.6818    0.1331 C   0  0  0  0  0  0  0  0  0  0  0  0
    1.1463   -1.4329    0.4817 N   0  0  0  0  0  0  0  0  0  0  0  0
   -1.2267    1.3282   -0.2083 C   0  0  0  0  0  0  0  0  0  0  0  0
   -1.4737    2.6273    0.2192 C   0  0  0  0  0  0  0  0  0  0  0  0
   -0.7960    4.2629    1.4295 H   0  0  0  0  0  0  0  0  0  0  0  0
    1.1944    3.0453    2.2509 H   0  0  0  0  0  0  0  0  0  0  0  0
    1.6321    0.7304    1.5080 H   0  0  0  0  0  0  0  0  0  0  0  0
   -1.2141   -0.8068   -1.8370 H   0  0  0  0  0  0  0  0  0  0  0  0
   -0.6553   -3.1107   -2.4797 H   0  0  0  0  0  0  0  0  0  0  0  0
    1.0800   -4.3599   -1.1683 H   0  0  0  0  0  0  0  0  0  0  0  0
    2.1847   -3.1816    0.7214 H   0  0  0  0  0  0  0  0  0  0  0  0
   -1.9170    0.8597   -0.8941 H   0  0  0  0  0  0  0  0  0  0  0  0
   -2.3530    3.1401   -0.1434 H   0  0  0  0  0  0  0  0  0  0  0  0
  1  2  2  0
  2  3  1  0
  3  4  2  0
  4  5  1  0
  5  6  2  0
  6  7  1  0
  7  8  2  0
  8  9  1  0
  9 10  2  0
  4 11  1  0
 11 12  2  0
 12  1  1  0
 10  5  1  0
  1 13  1  0
  2 14  1  0
  3 15  1  0
  6 16  1  0
  7 17  1  0
  8 18  1  0
  9 19  1  0
 11 20  1  0
 12 21  1  0
M  END
$$$$
