
     RDKit          3D

 20 21  0  0  0  0  0  0  0  0999 V2000
    0.4589   -0.6374    4.4088 Cl  0  0  0  0  0  0  0  0  0  0  0  0
   -0.4386   -0.6127    2.9302 C   0  0  0  0  0  0  0  0  0  0  0  0
   -1.7757   -0.9526    2.9121 C   0  0  0  0  0  0  0  0  0  0  0  0
   -2.3650   -0.8935    1.6564 C   0  0  0  0  0  0  0  0  0  0  0  0
   -4.0337   -1.2943    1.4517 Cl  0  0  0  0  0  0  0  0  0  0  0  0
   -1.7321   -0.5436    0.5575 N   0  0  0  0  0  0  0  0  0  0  0  0
   -0.4283   -0.2315    0.7112 C   0  0  0  0  0  0  0  0  0  0  0  0
    0.3163    0.1675   -0.5146 C   0  0  0  0  0  0  0  0  0  0  0  0
    1.6689    0.5101   -0.4315 C   0  0  0  0  0  0  0  0  0  0  0  0
    2.3566    0.8913   -1.5725 C   0  0  0  0  0  0  0  0  0  0  0  0
    1.7120    0.9251   -2.8073 C   0  0  0  0  0  0  0  0  0  0  0  0
    0.3671    0.5813   -2.8922 C   0  0  0  0  0  0  0  0  0  0  0  0
   -0.3323    0.2009   -1.7540 C   0  0  0  0  0  0  0  0  0  0  0  0
    0.2554   -0.2450    1.8652 N   0  0  0  0  0  0  0  0  0  0  0  0
   -2.3280   -1.2457    3.8000 H   0  0  0  0  0  0  0  0  0  0  0  0
    2.1671    0.4796    0.5300 H   0  0  0  0  0  0  0  0  0  0  0  0
    3.4037    1.1542   -1.4930 H   0  0  0  0  0  0  0  0  0  0  0  0
    2.2534    1.2188   -3.6925 H   0  0  0  0  0  0  0  0  0  0  0  0
   -0.1484    0.6039   -3.8435 H   0  0  0  0  0  0  0  0  0  0  0  0
   -1.3774   -0.0764   -1.8219 H   0  0  0  0  0  0  0  0  0  0  0  0
  1  2  1  0
  2  3  2  0
  3  4  1  0
  4  5  1  0
  4  6  2  0
  6  7  1  0
  7  8  1  0
  8  9  2  0
  9 10  1  0
 10 11  2  0
 11 12  1  0
 12 13  2  0
  7 14  2  0
 14  2  1  0
 13  8  1  0
  3 15  1  0
  9 16  1  0
 10 17  1  0
 11 18  1  0
 12 19  1  0
 13 20  1  0
M  END
$$$$

     RDKit          3D

 20 21  0  0  0  0  0  0  0  0999 V2000
    4.0261   -1.8094   -0.7323 Cl  0  0  0  0  0  0  0  0  0  0  0  0
    2.5943   -1.5386    0.2018 C   0  0  0  0  0  0  0  0  0  0  0  0
    2.4303   -2.1432    1.4298 C   0  0  0  0  0  0  0  0  0  0  0  0
    1.2341   -1.8377    2.0629 C   0  0  0  0  0  0  0  0  0  0  0  0
    0.8729   -2.5095    3.6143 Cl  0  0  0  0  0  0  0  0  0  0  0  0
    0.3132   -1.0407    1.5639 N   0  0  0  0  0  0  0  0  0  0  0  0
    0.5953   -0.5124    0.3539 C   0  0  0  0  0  0  0  0  0  0  0  0
   -0.4274    0.3867   -0.2496 C   0  0  0  0  0  0  0  0  0  0  0  0
   -0.2064    0.9547   -1.5082 C   0  0  0  0  0  0  0  0  0  0  0  0
   -1.1652    1.7811   -2.0704 C   0  0  0  0  0  0  0  0  0  0  0  0
   -2.3480    2.0559   -1.3881 C   0  0  0  0  0  0  0  0  0  0  0  0
   -2.5662    1.4982   -0.1333 C   0  0  0  0  0  0  0  0  0  0  0  0
   -1.6120    0.6667    0.4392 C   0  0  0  0  0  0  0  0  0  0  0  0
    1.7114   -0.7299   -0.3585 N   0  0  0  0  0  0  0  0  0  0  0  0
    3.1687   -2.8103    1.8652 H   0  0  0  0  0  0  0  0  0  0  0  0
    0.7149    0.7467   -2.0355 H   0  0  0  0  0  0  0  0  0  0  0  0
   -0.9859    2.2072   -3.0487 H   0  0  0  0  0  0  0  0  0  0  0  0
   -3.0908    2.6985   -1.8330 H   0  0  0  0  0  0  0  0  0  0  0  0
   -3.4774    1.7056    0.4111 H   0  0  0  0  0  0  0  0  0  0  0  0
   -1.7821    0.2305    1.4155 H   0  0  0  0  0  0  0  0  0  0  0  0
  1  2  1  0
  2  3  2  0
  3  4  1  0
  4  5  1  0
  4  6  2  0
  6  7  1  0
  7  8  1  0
  8  9  2  0
  9 10  1  0
 10 11  2  0
 11 12  1  0
 12 13  2  0
  7 14  2  0
 14  2  1  0
 13  8  1  0
  3 15  1  0
  9 16  1  0
 10 17  1  0
 11 18  1  0
 12 19  1  0
 13 20  1  0
M  END
$$$$

     RDKit          3D

 20 21  0  0  0  0  0  0  0  0999 V2000
    1.5038   -3.6062   -2.1941 Cl  0  0  0  0  0  0  0  0  0  0  0  0
    1.5384   -2.4368   -0.9184 C   0  0  0  0  0  0  0  0  0  0  0  0
    2.5085   -2.4967    0.0618 C   0  0  0  0  0  0  0  0  0  0  0  0
    2.4207   -1.4935    1.0181 C   0  0  0  0  0  0  0  0  0  0  0  0
    3.5495   -1.4221    2.3252 Cl  0  0  0  0  0  0  0  0  0  0  0  0
    1.5022   -0.5515    1.0198 N   0  0  0  0  0  0  0  0  0  0  0  0
    0.6111   -0.6078    0.0077 C   0  0  0  0  0  0  0  0  0  0  0  0
   -0.4442    0.4414   -0.0141 C   0  0  0  0  0  0  0  0  0  0  0  0
   -1.3966    0.4546   -1.0366 C   0  0  0  0  0  0  0  0  0  0  0  0
   -2.3732    1.4370   -1.0571 C   0  0  0  0  0  0  0  0  0  0  0  0
   -2.4215    2.4067   -0.0570 C   0  0  0  0  0  0  0  0  0  0  0  0
   -1.4762    2.3934    0.9628 C   0  0  0  0  0  0  0  0  0  0  0  0
   -0.4885    1.4170    0.9873 C   0  0  0  0  0  0  0  0  0  0  0  0
    0.5866   -1.5195   -0.9768 N   0  0  0  0  0  0  0  0  0  0  0  0
    3.2815   -3.2607    0.0871 H   0  0  0  0  0  0  0  0  0  0  0  0
   -1.3623   -0.3051   -1.8075 H   0  0  0  0  0  0  0  0  0  0  0  0
   -3.1032    1.4390   -1.8564 H   0  0  0  0  0  0  0  0  0  0  0  0
   -3.1897    3.1644   -0.0759 H   0  0  0  0  0  0  0  0  0  0  0  0
   -1.4964    3.1414    1.7437 H   0  0  0  0  0  0  0  0  0  0  0  0
    0.2494    1.4048    1.7803 H   0  0  0  0  0  0  0  0  0  0  0  0
  1  2  1  0
  2  3  2  0
  3  4  1  0
  4  5  1  0
  4  6  2  0
  6  7  1  0
  7  8  1  0
  8  9  2  0
  9 10  1  0
 10 11  2  0
 11 12  1  0
 12 13  2  0
  7 14  2  0
 14  2  1  0
 13  8  1  0
  3 15  1  0
  9 16  1  0
 10 17  1  0
 11 18  1  0
 12 19  1  0
 13 20  1  0
M  END
$$$$

     RDKit          3D

 20 21  0  0  0  0  0  0  0  0999 V2000
   -0.5415   -2.9192    3.3513 Cl  0  0  0  0  0  0  0  0  0  0  0  0
    0.2615   -2.2951    1.9492 C   0  0  0  0  0  0  0  0  0  0  0  0
    1.3681   -2.9347    1.4300 C   0  0  0  0  0  0  0  0  0  0  0  0
    1.9074   -2.3261    0.3048 C   0  0  0  0  0  0  0  0  0  0  0  0
    3.2998   -2.9932   -0.4802 Cl  0  0  0  0  0  0  0  0  0  0  0  0
    1.4281   -1.2337   -0.2432 N   0  0  0  0  0  0  0  0  0  0  0  0
    0.3403   -0.7079    0.3585 C   0  0  0  0  0  0  0  0  0  0  0  0
   -0.2359    0.5249   -0.2472 C   0  0  0  0  0  0  0  0  0  0  0  0
    0.3179    1.0609   -1.4119 C   0  0  0  0  0  0  0  0  0  0  0  0
   -0.2300    2.2045   -1.9742 C   0  0  0  0  0  0  0  0  0  0  0  0
   -1.3317    2.8223   -1.3870 C   0  0  0  0  0  0  0  0  0  0  0  0
   -1.8825    2.2903   -0.2259 C   0  0  0  0  0  0  0  0  0  0  0  0
   -1.3386    1.1485    0.3471 C   0  0  0  0  0  0  0  0  0  0  0  0
   -0.2719   -1.1945    1.4479 N   0  0  0  0  0  0  0  0  0  0  0  0
    1.7866   -3.8403    1.8615 H   0  0  0  0  0  0  0  0  0  0  0  0
    1.1744    0.5787   -1.8676 H   0  0  0  0  0  0  0  0  0  0  0  0
    0.2068    2.6100   -2.8781 H   0  0  0  0  0  0  0  0  0  0  0  0
   -1.7547    3.7108   -1.8296 H   0  0  0  0  0  0  0  0  0  0  0  0
   -2.7389    2.7591    0.2415 H   0  0  0  0  0  0  0  0  0  0  0  0
   -1.7651    0.7347    1.2531 H   0  0  0  0  0  0  0  0  0  0  0  0
  1  2  1  0
  2  3  2  0
  3  4  1  0
  4  5  1  0
  4  6  2  0
  6  7  1  0
  7  8  1  0
  8  9  2  0
  9 10  1  0
 10 11  2  0
 11 12  1  0
 12 13  2  0
  7 14  2  0
 14  2  1  0
 13  8  1  0
  3 15  1  0
  9 16  1  0
 10 17  1  0
 11 18  1  0
 12 19  1  0
 13 20  1  0
M  END
$$$$

     RDKit          3D

 20 21  0  0  0  0  0  0  0  0999 V2000
   -4.0870   -1.8286    0.1386 Cl  0  0  0  0  0  0  0  0  0  0  0  0
   -2.7963   -0.9712   -0.6278 C   0  0  0  0  0  0  0  0  0  0  0  0
   -2.9343   -0.5031   -1.9188 C   0  0  0  0  0  0  0  0  0  0  0  0
   -1.8248    0.1759   -2.4040 C   0  0  0  0  0  0  0  0  0  0  0  0
   -1.8255    0.8264   -4.0071 Cl  0  0  0  0  0  0  0  0  0  0  0  0
   -0.7186    0.3675   -1.7178 N   0  0  0  0  0  0  0  0  0  0  0  0
   -0.7127   -0.1358   -0.4650 C   0  0  0  0  0  0  0  0  0  0  0  0
    0.5212    0.0821    0.3398 C   0  0  0  0  0  0  0  0  0  0  0  0
    0.5917   -0.3898    1.6532 C   0  0  0  0  0  0  0  0  0  0  0  0
    1.7382   -0.1804    2.4023 C   0  0  0  0  0  0  0  0  0  0  0  0
    2.8263    0.4929    1.8524 C   0  0  0  0  0  0  0  0  0  0  0  0
    2.7596    0.9602    0.5450 C   0  0  0  0  0  0  0  0  0  0  0  0
    1.6132    0.7590   -0.2131 C   0  0  0  0  0  0  0  0  0  0  0  0
   -1.7152   -0.8091    0.1194 N   0  0  0  0  0  0  0  0  0  0  0  0
   -3.8355   -0.6463   -2.5094 H   0  0  0  0  0  0  0  0  0  0  0  0
   -0.2539   -0.9145    2.0759 H   0  0  0  0  0  0  0  0  0  0  0  0
    1.7791   -0.5479    3.4193 H   0  0  0  0  0  0  0  0  0  0  0  0
    3.7172    0.6498    2.4395 H   0  0  0  0  0  0  0  0  0  0  0  0
    3.5973    1.4855    0.1065 H   0  0  0  0  0  0  0  0  0  0  0  0
    1.5601    1.1273   -1.2289 H   0  0  0  0  0  0  0  0  0  0  0  0
  1  2  1  0
  2  3  2  0
  3  4  1  0
  4  5  1  0
  4  6  2  0
  6  7  1  0
  7  8  1  0
  8  9  2  0
  9 10  1  0
 10 11  2  0
 11 12  1  0
 12 13  2  0
  7 14  2  0
 14  2  1  0
 13  8  1  0
  3 15  1  0
  9 16  1  0
 10 17  1  0
 11 18  1  0
 12 19  1  0
 13 20  1  0
M  END
$$$$

     RDKit          3D

 20 21  0  0  0  0  0  0  0  0999 V2000
   -4.1713   -1.6185   -0.2354 Cl  0  0  0  0  0  0  0  0  0  0  0  0
   -2.9981   -0.3950    0.1204 C   0  0  0  0  0  0  0  0  0  0  0  0
   -3.3878    0.8325    0.6141 C   0  0  0  0  0  0  0  0  0  0  0  0
   -2.3419    1.7176    0.8403 C   0  0  0  0  0  0  0  0  0  0  0  0
   -2.6541    3.3092    1.4416 Cl  0  0  0  0  0  0  0  0  0  0  0  0
   -1.0751    1.4389    0.6220 N   0  0  0  0  0  0  0  0  0  0  0  0
   -0.8261    0.2004    0.1457 C   0  0  0  0  0  0  0  0  0  0  0  0
    0.5994   -0.1478   -0.1083 C   0  0  0  0  0  0  0  0  0  0  0  0
    0.9311   -1.4076   -0.6124 C   0  0  0  0  0  0  0  0  0  0  0  0
    2.2576   -1.7310   -0.8445 C   0  0  0  0  0  0  0  0  0  0  0  0
    3.2682   -0.8079   -0.5840 C   0  0  0  0  0  0  0  0  0  0  0  0
    2.9401    0.4475   -0.0850 C   0  0  0  0  0  0  0  0  0  0  0  0
    1.6128    0.7799    0.1553 C   0  0  0  0  0  0  0  0  0  0  0  0
   -1.7439   -0.7416   -0.1200 N   0  0  0  0  0  0  0  0  0  0  0  0
   -4.4245    1.0941    0.8061 H   0  0  0  0  0  0  0  0  0  0  0  0
    0.1475   -2.1256   -0.8180 H   0  0  0  0  0  0  0  0  0  0  0  0
    2.4964   -2.7106   -1.2370 H   0  0  0  0  0  0  0  0  0  0  0  0
    4.2984   -1.0673   -0.7698 H   0  0  0  0  0  0  0  0  0  0  0  0
    3.7116    1.1765    0.1235 H   0  0  0  0  0  0  0  0  0  0  0  0
    1.3599    1.7563    0.5454 H   0  0  0  0  0  0  0  0  0  0  0  0
  1  2  1  0
  2  3  2  0
  3  4  1  0
  4  5  1  0
  4  6  2  0
  6  7  1  0
  7  8  1  0
  8  9  2  0
  9 10  1  0
 10 11  2  0
 11 12  1  0
 12 13  2  0
  7 14  2  0
 14  2  1  0
 13  8  1  0
  3 15  1  0
  9 16  1  0
 10 17  1  0
 11 18  1  0
 12 19  1  0
 13 20  1  0
M  END
$$$$

     RDKit          3D

 20 21  0  0  0  0  0  0  0  0999 V2000
    1.6047    4.1385    0.6310 Cl  0  0  0  0  0  0  0  0  0  0  0  0
    1.7210    2.4126    0.6101 C   0  0  0  0  0  0  0  0  0  0  0  0
    2.9002    1.7864    0.9606 C   0  0  0  0  0  0  0  0  0  0  0  0
    2.8545    0.4003    0.9015 C   0  0  0  0  0  0  0  0  0  0  0  0
    4.2484   -0.5405    1.3111 Cl  0  0  0  0  0  0  0  0  0  0  0  0
    1.7927   -0.2908    0.5464 N   0  0  0  0  0  0  0  0  0  0  0  0
    0.7029    0.4416    0.2278 C   0  0  0  0  0  0  0  0  0  0  0  0
   -0.5150   -0.3128   -0.1763 C   0  0  0  0  0  0  0  0  0  0  0  0
   -1.6712    0.3744   -0.5556 C   0  0  0  0  0  0  0  0  0  0  0  0
   -2.8039   -0.3330   -0.9252 C   0  0  0  0  0  0  0  0  0  0  0  0
   -2.7980   -1.7265   -0.9230 C   0  0  0  0  0  0  0  0  0  0  0  0
   -1.6482   -2.4114   -0.5469 C   0  0  0  0  0  0  0  0  0  0  0  0
   -0.5078   -1.7115   -0.1732 C   0  0  0  0  0  0  0  0  0  0  0  0
    0.6168    1.7801    0.2453 N   0  0  0  0  0  0  0  0  0  0  0  0
    3.7949    2.3293    1.2557 H   0  0  0  0  0  0  0  0  0  0  0  0
   -1.6724    1.4572   -0.5495 H   0  0  0  0  0  0  0  0  0  0  0  0
   -3.6924    0.2109   -1.2177 H   0  0  0  0  0  0  0  0  0  0  0  0
   -3.6843   -2.2713   -1.2087 H   0  0  0  0  0  0  0  0  0  0  0  0
   -1.6321   -3.4929   -0.5351 H   0  0  0  0  0  0  0  0  0  0  0  0
    0.3893   -2.2404    0.1217 H   0  0  0  0  0  0  0  0  0  0  0  0
  1  2  1  0
  2  3  2  0
  3  4  1  0
  4  5  1  0
  4  6  2  0
  6  7  1  0
  7  8  1  0
  8  9  2  0
  9 10  1  0
 10 11  2  0
 11 12  1  0
 12 13  2  0
  7 14  2  0
 14  2  1  0
 13  8  1  0
  3 15  1  0
  9 16  1  0
 10 17  1  0
 11 18  1  0
 12 19  1  0
 13 20  1  0
M  END
$$$$

     RDKit          3D

 20 21  0  0  0  0  0  0  0  0999 V2000
   -1.0646   -0.5112    4.3265 Cl  0  0  0  0  0  0  0  0  0  0  0  0
    0.0009   -0.0977    3.0253 C   0  0  0  0  0  0  0  0  0  0  0  0
    1.2857    0.3380    3.2794 C   0  0  0  0  0  0  0  0  0  0  0  0
    2.0312    0.6267    2.1440 C   0  0  0  0  0  0  0  0  0  0  0  0
    3.6662    1.1797    2.2854 Cl  0  0  0  0  0  0  0  0  0  0  0  0
    1.5816    0.5110    0.9143 N   0  0  0  0  0  0  0  0  0  0  0  0
    0.3081    0.0722    0.8022 C   0  0  0  0  0  0  0  0  0  0  0  0
   -0.2329   -0.0681   -0.5782 C   0  0  0  0  0  0  0  0  0  0  0  0
   -1.5285   -0.5500   -0.7848 C   0  0  0  0  0  0  0  0  0  0  0  0
   -2.0248   -0.6695   -2.0738 C   0  0  0  0  0  0  0  0  0  0  0  0
   -1.2419   -0.3082   -3.1669 C   0  0  0  0  0  0  0  0  0  0  0  0
    0.0484    0.1677   -2.9624 C   0  0  0  0  0  0  0  0  0  0  0  0
    0.5578    0.2852   -1.6756 C   0  0  0  0  0  0  0  0  0  0  0  0
   -0.5099   -0.2465    1.8155 N   0  0  0  0  0  0  0  0  0  0  0  0
    1.6846    0.4536    4.2829 H   0  0  0  0  0  0  0  0  0  0  0  0
   -2.1337   -0.8329    0.0677 H   0  0  0  0  0  0  0  0  0  0  0  0
   -3.0295   -1.0464   -2.2184 H   0  0  0  0  0  0  0  0  0  0  0  0
   -1.6341   -0.3991   -4.1675 H   0  0  0  0  0  0  0  0  0  0  0  0
    0.6705    0.4477   -3.8020 H   0  0  0  0  0  0  0  0  0  0  0  0
    1.5648    0.6479   -1.5133 H   0  0  0  0  0  0  0  0  0  0  0  0
  1  2  1  0
  2  3  2  0
  3  4  1  0
  4  5  1  0
  4  6  2  0
  6  7  1  0
  7  8  1  0
  8  9  2  0
  9 10  1  0
 10 11  2  0
 11 12  1  0
 12 13  2  0
  7 14  2  0
 14  2  1  0
 13  8  1  0
  3 15  1  0
  9 16  1  0
 10 17  1  0
 11 18  1  0
 12 19  1  0
 13 20  1  0
M  END
$$$$

     RDKit          3D

 20 21  0  0  0  0  0  0  0  0999 V2000
   -2.3768   -2.2347    3.0665 Cl  0  0  0  0  0  0  0  0  0  0  0  0
   -2.1838   -1.3756    1.5734 C   0  0  0  0  0  0  0  0  0  0  0  0
   -3.2582   -1.1705    0.7336 C   0  0  0  0  0  0  0  0  0  0  0  0
   -2.9555   -0.4686   -0.4261 C   0  0  0  0  0  0  0  0  0  0  0  0
   -4.1888   -0.1341   -1.5915 Cl  0  0  0  0  0  0  0  0  0  0  0  0
   -1.7566   -0.0197   -0.7294 N   0  0  0  0  0  0  0  0  0  0  0  0
   -0.7936   -0.2841    0.1785 C   0  0  0  0  0  0  0  0  0  0  0  0
    0.5772    0.2057   -0.1334 C   0  0  0  0  0  0  0  0  0  0  0  0
    1.6189   -0.0152    0.7719 C   0  0  0  0  0  0  0  0  0  0  0  0
    2.8920    0.4517    0.4886 C   0  0  0  0  0  0  0  0  0  0  0  0
    3.1438    1.1353   -0.6992 C   0  0  0  0  0  0  0  0  0  0  0  0
    2.1102    1.3484   -1.6051 C   0  0  0  0  0  0  0  0  0  0  0  0
    0.8291    0.8876   -1.3279 C   0  0  0  0  0  0  0  0  0  0  0  0
   -0.9556   -0.9501    1.3326 N   0  0  0  0  0  0  0  0  0  0  0  0
   -4.2604   -1.5298    0.9529 H   0  0  0  0  0  0  0  0  0  0  0  0
    1.4185   -0.5476    1.6930 H   0  0  0  0  0  0  0  0  0  0  0  0
    3.6881    0.2785    1.2013 H   0  0  0  0  0  0  0  0  0  0  0  0
    4.1365    1.5011   -0.9122 H   0  0  0  0  0  0  0  0  0  0  0  0
    2.2909    1.8763   -2.5320 H   0  0  0  0  0  0  0  0  0  0  0  0
    0.0242    1.0455   -2.0356 H   0  0  0  0  0  0  0  0  0  0  0  0
  1  2  1  0
  2  3  2  0
  3  4  1  0
  4  5  1  0
  4  6  2  0
  6  7  1  0
  7  8  1  0
  8  9  2  0
  9 10  1  0
 10 11  2  0
 11 12  1  0
 12 13  2  0
  7 14  2  0
 14  2  1  0
 13  8  1  0
  3 15  1  0
  9 16  1  0
 10 17  1  0
 11 18  1  0
 12 19  1  0
 13 20  1  0
M  END
$$$$

     RDKit          3D

 20 21  0  0  0  0  0  0  0  0999 V2000
    2.9119    2.0204   -2.7500 Cl  0  0  0  0  0  0  0  0  0  0  0  0
    2.3552    0.7088   -1.7687 C   0  0  0  0  0  0  0  0  0  0  0  0
    3.1084   -0.4396   -1.6368 C   0  0  0  0  0  0  0  0  0  0  0  0
    2.5470   -1.3994   -0.8069 C   0  0  0  0  0  0  0  0  0  0  0  0
    3.3653   -2.8976   -0.5243 Cl  0  0  0  0  0  0  0  0  0  0  0  0
    1.3973   -1.2587   -0.1859 N   0  0  0  0  0  0  0  0  0  0  0  0
    0.7542   -0.0918   -0.4039 C   0  0  0  0  0  0  0  0  0  0  0  0
   -0.5534    0.0875    0.2850 C   0  0  0  0  0  0  0  0  0  0  0  0
   -1.2876    1.2616    0.1039 C   0  0  0  0  0  0  0  0  0  0  0  0
   -2.5022    1.4199    0.7530 C   0  0  0  0  0  0  0  0  0  0  0  0
   -2.9995    0.4114    1.5778 C   0  0  0  0  0  0  0  0  0  0  0  0
   -2.2686   -0.7572    1.7579 C   0  0  0  0  0  0  0  0  0  0  0  0
   -1.0485   -0.9231    1.1171 C   0  0  0  0  0  0  0  0  0  0  0  0
    1.1883    0.9123   -1.1784 N   0  0  0  0  0  0  0  0  0  0  0  0
    4.0636   -0.5889   -2.1334 H   0  0  0  0  0  0  0  0  0  0  0  0
   -0.9009    2.0415   -0.5416 H   0  0  0  0  0  0  0  0  0  0  0  0
   -3.0620    2.3346    0.6086 H   0  0  0  0  0  0  0  0  0  0  0  0
   -3.9495    0.5365    2.0726 H   0  0  0  0  0  0  0  0  0  0  0  0
   -2.6396   -1.5447    2.4014 H   0  0  0  0  0  0  0  0  0  0  0  0
   -0.4792   -1.8336    1.2528 H   0  0  0  0  0  0  0  0  0  0  0  0
  1  2  1  0
  2  3  2  0
  3  4  1  0
  4  5  1  0
  4  6  2  0
  6  7  1  0
  7  8  1  0
  8  9  2  0
  9 10  1  0
 10 11  2  0
 11 12  1  0
 12 13  2  0
  7 14  2  0
 14  2  1  0
 13  8  1  0
  3 15  1  0
  9 16  1  0
 10 17  1  0
 11 18  1  0
 12 19  1  0
 13 20  1  0
M  END
$$$$

     RDKit          3D

 20 21  0  0  0  0  0  0  0  0999 V2000
    0.4036    4.0680    1.8411 Cl  0  0  0  0  0  0  0  0  0  0  0  0
    0.7231    2.8698    0.6298 C   0  0  0  0  0  0  0  0  0  0  0  0
    1.5346    3.1573   -0.4495 C   0  0  0  0  0  0  0  0  0  0  0  0
    1.6955    2.1069   -1.3433 C   0  0  0  0  0  0  0  0  0  0  0  0
    2.6936    2.2901   -2.7445 Cl  0  0  0  0  0  0  0  0  0  0  0  0
    1.1345    0.9247   -1.2056 N   0  0  0  0  0  0  0  0  0  0  0  0
    0.3699    0.7711   -0.1033 C   0  0  0  0  0  0  0  0  0  0  0  0
   -0.2735   -0.5569    0.0840 C   0  0  0  0  0  0  0  0  0  0  0  0
   -1.0280   -0.8160    1.2310 C   0  0  0  0  0  0  0  0  0  0  0  0
   -1.6237   -2.0564    1.3994 C   0  0  0  0  0  0  0  0  0  0  0  0
   -1.4771   -3.0476    0.4313 C   0  0  0  0  0  0  0  0  0  0  0  0
   -0.7267   -2.7907   -0.7101 C   0  0  0  0  0  0  0  0  0  0  0  0
   -0.1260   -1.5507   -0.8884 C   0  0  0  0  0  0  0  0  0  0  0  0
    0.1371    1.7016    0.8351 N   0  0  0  0  0  0  0  0  0  0  0  0
    2.0127    4.1232   -0.5923 H   0  0  0  0  0  0  0  0  0  0  0  0
   -1.1404   -0.0409    1.9793 H   0  0  0  0  0  0  0  0  0  0  0  0
   -2.2097   -2.2456    2.2890 H   0  0  0  0  0  0  0  0  0  0  0  0
   -1.9464   -4.0106    0.5682 H   0  0  0  0  0  0  0  0  0  0  0  0
   -0.6026   -3.5515   -1.4694 H   0  0  0  0  0  0  0  0  0  0  0  0
    0.4495   -1.3457   -1.7817 H   0  0  0  0  0  0  0  0  0  0  0  0
  1  2  1  0
  2  3  2  0
  3  4  1  0
  4  5  1  0
  4  6  2  0
  6  7  1  0
  7  8  1  0
  8  9  2  0
  9 10  1  0
 10 11  2  0
 11 12  1  0
 12 13  2  0
  7 14  2  0
 14  2  1  0
 13  8  1  0
  3 15  1  0
  9 16  1  0
 10 17  1  0
 11 18  1  0
 12 19  1  0
 13 20  1  0
M  END
$$$$

     RDKit          3D

 20 21  0  0  0  0  0  0  0  0999 V2000
   -1.6335   -4.1685    0.1427 Cl  0  0  0  0  0  0  0  0  0  0  0  0
   -0.5425   -2.9460   -0.4172 C   0  0  0  0  0  0  0  0  0  0  0  0
    0.4468   -3.2494   -1.3319 C   0  0  0  0  0  0  0  0  0  0  0  0
    1.2534   -2.1748   -1.6829 C   0  0  0  0  0  0  0  0  0  0  0  0
    2.5416   -2.3769   -2.8198 Cl  0  0  0  0  0  0  0  0  0  0  0  0
    1.1128   -0.9577   -1.2021 N   0  0  0  0  0  0  0  0  0  0  0  0
    0.1030   -0.7922   -0.3210 C   0  0  0  0  0  0  0  0  0  0  0  0
   -0.0850    0.5743    0.2365 C   0  0  0  0  0  0  0  0  0  0  0  0
   -1.1065    0.8247    1.1570 C   0  0  0  0  0  0  0  0  0  0  0  0
   -1.2742    2.0997    1.6730 C   0  0  0  0  0  0  0  0  0  0  0  0
   -0.4256    3.1339    1.2854 C   0  0  0  0  0  0  0  0  0  0  0  0
    0.5909    2.8864    0.3691 C   0  0  0  0  0  0  0  0  0  0  0  0
    0.7613    1.6139   -0.1615 C   0  0  0  0  0  0  0  0  0  0  0  0
   -0.7428   -1.7453    0.1006 N   0  0  0  0  0  0  0  0  0  0  0  0
    0.5865   -4.2450   -1.7463 H   0  0  0  0  0  0  0  0  0  0  0  0
   -1.7632    0.0185    1.4585 H   0  0  0  0  0  0  0  0  0  0  0  0
   -2.0698    2.2820    2.3841 H   0  0  0  0  0  0  0  0  0  0  0  0
   -0.5569    4.1230    1.6972 H   0  0  0  0  0  0  0  0  0  0  0  0
    1.2565    3.6808    0.0595 H   0  0  0  0  0  0  0  0  0  0  0  0
    1.5470    1.4187   -0.8811 H   0  0  0  0  0  0  0  0  0  0  0  0
  1  2  1  0
  2  3  2  0
  3  4  1  0
  4  5  1  0
  4  6  2  0
  6  7  1  0
  7  8  1  0
  8  9  2  0
  9 10  1  0
 10 11  2  0
 11 12  1  0
 12 13  2  0
  7 14  2  0
 14  2  1  0
 13  8  1  0
  3 15  1  0
  9 16  1  0
 10 17  1  0
 11 18  1  0
 12 19  1  0
 13 20  1  0
M  END
$$$$
