
     RDKit          3D

 27 29  0  0  0  0  0  0  0  0999 V2000
    1.0812    0.8753    4.4412 C   0  0  0  0  0  0  0  0  0  0  0  0
    0.6552   -0.3562    3.9326 C   0  0  0  0  0  0  0  0  0  0  0  0
    0.3484   -0.4922    2.5842 C   0  0  0  0  0  0  0  0  0  0  0  0
    0.4563    0.6016    1.7146 C   0  0  0  0  0  0  0  0  0  0  0  0
    0.1192    0.4306    0.2640 C   0  0  0  0  0  0  0  0  0  0  0  0
    0.1398    1.5214   -0.6274 C   0  0  0  0  0  0  0  0  0  0  0  0
   -0.1585    1.3380   -1.9391 C   0  0  0  0  0  0  0  0  0  0  0  0
   -0.4877    0.0439   -2.4032 C   0  0  0  0  0  0  0  0  0  0  0  0
   -0.8055   -0.2490   -3.7501 C   0  0  0  0  0  0  0  0  0  0  0  0
   -1.1066   -1.5314   -4.1345 C   0  0  0  0  0  0  0  0  0  0  0  0
   -1.1158   -2.5731   -3.1857 C   0  0  0  0  0  0  0  0  0  0  0  0
   -0.8226   -2.3267   -1.8527 C   0  0  0  0  0  0  0  0  0  0  0  0
   -0.4962   -1.0121   -1.4324 C   0  0  0  0  0  0  0  0  0  0  0  0
   -0.1951   -0.7966   -0.1353 N   0  0  0  0  0  0  0  0  0  0  0  0
    0.8822    1.8297    2.2375 C   0  0  0  0  0  0  0  0  0  0  0  0
    1.1911    1.9658    3.5886 C   0  0  0  0  0  0  0  0  0  0  0  0
    1.3199    0.9756    5.4889 H   0  0  0  0  0  0  0  0  0  0  0  0
    0.5636   -1.2054    4.5901 H   0  0  0  0  0  0  0  0  0  0  0  0
    0.0178   -1.4437    2.2052 H   0  0  0  0  0  0  0  0  0  0  0  0
    0.3880    2.5091   -0.2679 H   0  0  0  0  0  0  0  0  0  0  0  0
   -0.1503    2.1574   -2.6416 H   0  0  0  0  0  0  0  0  0  0  0  0
   -0.7959    0.5601   -4.4599 H   0  0  0  0  0  0  0  0  0  0  0  0
   -1.3392   -1.7449   -5.1684 H   0  0  0  0  0  0  0  0  0  0  0  0
   -1.3517   -3.5770   -3.4959 H   0  0  0  0  0  0  0  0  0  0  0  0
   -0.8346   -3.1144   -1.1167 H   0  0  0  0  0  0  0  0  0  0  0  0
    0.9864    2.6921    1.6020 H   0  0  0  0  0  0  0  0  0  0  0  0
    1.5106    2.9222    3.9621 H   0  0  0  0  0  0  0  0  0  0  0  0
  1  2  2  0
  2  3  1  0
  3  4  2  0
  4  5  1  0
  5  6  2  0
  6  7  1  0
  7  8  2  0
  8  9  1  0
  9 10  2  0
 10 11  1  0
 11 12  2  0
 12 13  1  0
 13 14  2  0
  4 15  1  0
 15 16  2  0
 16  1  1  0
 14  5  1  0
 13  8  1  0
  1 17  1  0
  2 18  1  0
  3 19  1  0
  6 20  1  0
  7 21  1  0
  9 22  1  0
 10 23  1  0
 11 24  1  0
 12 25  1  0
 15 26  1  0
 16 27  1  0
M  END
$$$$

     RDKit          3D

 27 29  0  0  0  0  0  0  0  0999 V2000
    0.0359    4.4166   -1.4592 C   0  0  0  0  0  0  0  0  0  0  0  0
    0.7244    3.9129   -0.3500 C   0  0  0  0  0  0  0  0  0  0  0  0
    0.6330    2.5674   -0.0160 C   0  0  0  0  0  0  0  0  0  0  0  0
   -0.1556    1.6959   -0.7790 C   0  0  0  0  0  0  0  0  0  0  0  0
   -0.2528    0.2537   -0.3837 C   0  0  0  0  0  0  0  0  0  0  0  0
   -1.1239   -0.6365   -1.0422 C   0  0  0  0  0  0  0  0  0  0  0  0
   -1.1912   -1.9374   -0.6574 C   0  0  0  0  0  0  0  0  0  0  0  0
   -0.3818   -2.3892    0.4097 C   0  0  0  0  0  0  0  0  0  0  0  0
   -0.3819   -3.7211    0.8837 C   0  0  0  0  0  0  0  0  0  0  0  0
    0.4442   -4.0945    1.9147 C   0  0  0  0  0  0  0  0  0  0  0  0
    1.2955   -3.1496    2.5221 C   0  0  0  0  0  0  0  0  0  0  0  0
    1.3167   -1.8309    2.0972 C   0  0  0  0  0  0  0  0  0  0  0  0
    0.4787   -1.4216    1.0280 C   0  0  0  0  0  0  0  0  0  0  0  0
    0.5214   -0.1370    0.6228 N   0  0  0  0  0  0  0  0  0  0  0  0
   -0.8326    2.2110   -1.8932 C   0  0  0  0  0  0  0  0  0  0  0  0
   -0.7401    3.5595   -2.2294 C   0  0  0  0  0  0  0  0  0  0  0  0
    0.1045    5.4643   -1.7110 H   0  0  0  0  0  0  0  0  0  0  0  0
    1.3321    4.5703    0.2495 H   0  0  0  0  0  0  0  0  0  0  0  0
    1.1697    2.1916    0.8392 H   0  0  0  0  0  0  0  0  0  0  0  0
   -1.7406   -0.2877   -1.8572 H   0  0  0  0  0  0  0  0  0  0  0  0
   -1.8451   -2.6390   -1.1520 H   0  0  0  0  0  0  0  0  0  0  0  0
   -1.0459   -4.4273    0.4142 H   0  0  0  0  0  0  0  0  0  0  0  0
    0.4429   -5.1183    2.2619 H   0  0  0  0  0  0  0  0  0  0  0  0
    1.9430   -3.4510    3.3290 H   0  0  0  0  0  0  0  0  0  0  0  0
    1.9602   -1.0981    2.5571 H   0  0  0  0  0  0  0  0  0  0  0  0
   -1.4385    1.5689   -2.5103 H   0  0  0  0  0  0  0  0  0  0  0  0
   -1.2722    3.9269   -3.0886 H   0  0  0  0  0  0  0  0  0  0  0  0
  1  2  2  0
  2  3  1  0
  3  4  2  0
  4  5  1  0
  5  6  2  0
  6  7  1  0
  7  8  2  0
  8  9  1  0
  9 10  2  0
 10 11  1  0
 11 12  2  0
 12 13  1  0
 13 14  2  0
  4 15  1  0
 15 16  2  0
 16  1  1  0
 14  5  1  0
 13  8  1  0
  1 17  1  0
  2 18  1  0
  3 19  1  0
  6 20  1  0
  7 21  1  0
  9 22  1  0
 10 23  1  0
 11 24  1  0
 12 25  1  0
 15 26  1  0
 16 27  1  0
M  END
$$$$

     RDKit          3D

 27 29  0  0  0  0  0  0  0  0999 V2000
   -1.7181    1.1249   -4.1790 C   0  0  0  0  0  0  0  0  0  0  0  0
   -0.8657    0.0443   -3.9238 C   0  0  0  0  0  0  0  0  0  0  0  0
   -0.4479   -0.2314   -2.6269 C   0  0  0  0  0  0  0  0  0  0  0  0
   -0.8726    0.5640   -1.5566 C   0  0  0  0  0  0  0  0  0  0  0  0
   -0.4158    0.2447   -0.1664 C   0  0  0  0  0  0  0  0  0  0  0  0
   -1.1001    0.7545    0.9544 C   0  0  0  0  0  0  0  0  0  0  0  0
   -0.6449    0.4984    2.2088 C   0  0  0  0  0  0  0  0  0  0  0  0
    0.5086   -0.3000    2.3788 C   0  0  0  0  0  0  0  0  0  0  0  0
    1.0670   -0.6151    3.6383 C   0  0  0  0  0  0  0  0  0  0  0  0
    2.1848   -1.4057    3.7288 C   0  0  0  0  0  0  0  0  0  0  0  0
    2.7946   -1.9088    2.5639 C   0  0  0  0  0  0  0  0  0  0  0  0
    2.2865   -1.6161    1.3092 C   0  0  0  0  0  0  0  0  0  0  0  0
    1.1313   -0.8039    1.1881 C   0  0  0  0  0  0  0  0  0  0  0  0
    0.6517   -0.5354   -0.0452 N   0  0  0  0  0  0  0  0  0  0  0  0
   -1.7116    1.6539   -1.8240 C   0  0  0  0  0  0  0  0  0  0  0  0
   -2.1365    1.9269   -3.1235 C   0  0  0  0  0  0  0  0  0  0  0  0
   -2.0460    1.3326   -5.1866 H   0  0  0  0  0  0  0  0  0  0  0  0
   -0.5334   -0.5802   -4.7358 H   0  0  0  0  0  0  0  0  0  0  0  0
    0.2153   -1.0602   -2.4410 H   0  0  0  0  0  0  0  0  0  0  0  0
   -1.9933    1.3442    0.8085 H   0  0  0  0  0  0  0  0  0  0  0  0
   -1.1416    0.8895    3.0846 H   0  0  0  0  0  0  0  0  0  0  0  0
    0.5902   -0.2205    4.5192 H   0  0  0  0  0  0  0  0  0  0  0  0
    2.6002   -1.6441    4.6983 H   0  0  0  0  0  0  0  0  0  0  0  0
    3.6697   -2.5327    2.6422 H   0  0  0  0  0  0  0  0  0  0  0  0
    2.7498   -1.9913    0.4112 H   0  0  0  0  0  0  0  0  0  0  0  0
   -2.0382    2.2993   -1.0254 H   0  0  0  0  0  0  0  0  0  0  0  0
   -2.7837    2.7680   -3.3000 H   0  0  0  0  0  0  0  0  0  0  0  0
  1  2  2  0
  2  3  1  0
  3  4  2  0
  4  5  1  0
  5  6  2  0
  6  7  1  0
  7  8  2  0
  8  9  1  0
  9 10  2  0
 10 11  1  0
 11 12  2  0
 12 13  1  0
 13 14  2  0
  4 15  1  0
 15 16  2  0
 16  1  1  0
 14  5  1  0
 13  8  1  0
  1 17  1  0
  2 18  1  0
  3 19  1  0
  6 20  1  0
  7 21  1  0
  9 22  1  0
 10 23  1  0
 11 24  1  0
 12 25  1  0
 15 26  1  0
 16 27  1  0
M  END
$$$$

     RDKit          3D

 27 29  0  0  0  0  0  0  0  0999 V2000
   -3.8962    2.1900    1.2862 C   0  0  0  0  0  0  0  0  0  0  0  0
   -2.9562    2.6632    0.3636 C   0  0  0  0  0  0  0  0  0  0  0  0
   -1.8365    1.9045    0.0507 C   0  0  0  0  0  0  0  0  0  0  0  0
   -1.6269    0.6569    0.6529 C   0  0  0  0  0  0  0  0  0  0  0  0
   -0.4106   -0.1412    0.2940 C   0  0  0  0  0  0  0  0  0  0  0  0
   -0.2275   -1.4568    0.7620 C   0  0  0  0  0  0  0  0  0  0  0  0
    0.8909   -2.1519    0.4274 C   0  0  0  0  0  0  0  0  0  0  0  0
    1.8643   -1.5454   -0.3997 C   0  0  0  0  0  0  0  0  0  0  0  0
    3.0623   -2.1813   -0.8015 C   0  0  0  0  0  0  0  0  0  0  0  0
    3.9640   -1.5292   -1.6058 C   0  0  0  0  0  0  0  0  0  0  0  0
    3.7058   -0.2160   -2.0464 C   0  0  0  0  0  0  0  0  0  0  0  0
    2.5453    0.4445   -1.6755 C   0  0  0  0  0  0  0  0  0  0  0  0
    1.6005   -0.2061   -0.8411 C   0  0  0  0  0  0  0  0  0  0  0  0
    0.4792    0.4563   -0.4917 N   0  0  0  0  0  0  0  0  0  0  0  0
   -2.5689    0.1994    1.5842 C   0  0  0  0  0  0  0  0  0  0  0  0
   -3.6959    0.9571    1.8938 C   0  0  0  0  0  0  0  0  0  0  0  0
   -4.7686    2.7800    1.5239 H   0  0  0  0  0  0  0  0  0  0  0  0
   -3.1016    3.6203   -0.1094 H   0  0  0  0  0  0  0  0  0  0  0  0
   -1.1235    2.2794   -0.6642 H   0  0  0  0  0  0  0  0  0  0  0  0
   -0.9808   -1.9190    1.3816 H   0  0  0  0  0  0  0  0  0  0  0  0
    1.0567   -3.1573    0.7830 H   0  0  0  0  0  0  0  0  0  0  0  0
    3.2413   -3.1872   -0.4618 H   0  0  0  0  0  0  0  0  0  0  0  0
    4.8774   -2.0246   -1.9028 H   0  0  0  0  0  0  0  0  0  0  0  0
    4.4166    0.2862   -2.6818 H   0  0  0  0  0  0  0  0  0  0  0  0
    2.3351    1.4477   -2.0086 H   0  0  0  0  0  0  0  0  0  0  0  0
   -2.4418   -0.7498    2.0767 H   0  0  0  0  0  0  0  0  0  0  0  0
   -4.4044    0.5804    2.6105 H   0  0  0  0  0  0  0  0  0  0  0  0
  1  2  2  0
  2  3  1  0
  3  4  2  0
  4  5  1  0
  5  6  2  0
  6  7  1  0
  7  8  2  0
  8  9  1  0
  9 10  2  0
 10 11  1  0
 11 12  2  0
 12 13  1  0
 13 14  2  0
  4 15  1  0
 15 16  2  0
 16  1  1  0
 14  5  1  0
 13  8  1  0
  1 17  1  0
  2 18  1  0
  3 19  1  0
  6 20  1  0
  7 21  1  0
  9 22  1  0
 10 23  1  0
 11 24  1  0
 12 25  1  0
 15 26  1  0
 16 27  1  0
M  END
$$$$

     RDKit          3D

 27 29  0  0  0  0  0  0  0  0999 V2000
    0.5809   -4.2740    1.7439 C   0  0  0  0  0  0  0  0  0  0  0  0
    1.6265   -3.4594    1.2941 C   0  0  0  0  0  0  0  0  0  0  0  0
    1.3570   -2.2113    0.7416 C   0  0  0  0  0  0  0  0  0  0  0  0
    0.0380   -1.7623    0.6171 C   0  0  0  0  0  0  0  0  0  0  0  0
   -0.2431   -0.4340   -0.0105 C   0  0  0  0  0  0  0  0  0  0  0  0
   -1.4636   -0.2036   -0.6765 C   0  0  0  0  0  0  0  0  0  0  0  0
   -1.7334    1.0193   -1.2014 C   0  0  0  0  0  0  0  0  0  0  0  0
   -0.7758    2.0506   -1.0785 C   0  0  0  0  0  0  0  0  0  0  0  0
   -0.9702    3.3601   -1.5699 C   0  0  0  0  0  0  0  0  0  0  0  0
    0.0044    4.3154   -1.4165 C   0  0  0  0  0  0  0  0  0  0  0  0
    1.2174    3.9984   -0.7728 C   0  0  0  0  0  0  0  0  0  0  0  0
    1.4508    2.7257   -0.2777 C   0  0  0  0  0  0  0  0  0  0  0  0
    0.4569    1.7242   -0.4156 C   0  0  0  0  0  0  0  0  0  0  0  0
    0.6994    0.4948    0.0884 N   0  0  0  0  0  0  0  0  0  0  0  0
   -1.0003   -2.5728    1.0893 C   0  0  0  0  0  0  0  0  0  0  0  0
   -0.7316   -3.8240    1.6427 C   0  0  0  0  0  0  0  0  0  0  0  0
    0.7927   -5.2473    2.1619 H   0  0  0  0  0  0  0  0  0  0  0  0
    2.6459   -3.7988    1.3755 H   0  0  0  0  0  0  0  0  0  0  0  0
    2.1657   -1.5788    0.4070 H   0  0  0  0  0  0  0  0  0  0  0  0
   -2.1739   -1.0111   -0.7761 H   0  0  0  0  0  0  0  0  0  0  0  0
   -2.6663    1.2275   -1.7045 H   0  0  0  0  0  0  0  0  0  0  0  0
   -1.9041    3.5819   -2.0619 H   0  0  0  0  0  0  0  0  0  0  0  0
   -0.1601    5.3183   -1.7878 H   0  0  0  0  0  0  0  0  0  0  0  0
    1.9774    4.7553   -0.6559 H   0  0  0  0  0  0  0  0  0  0  0  0
    2.3776    2.4684    0.2098 H   0  0  0  0  0  0  0  0  0  0  0  0
   -2.0214   -2.2293    1.0402 H   0  0  0  0  0  0  0  0  0  0  0  0
   -1.5465   -4.4332    1.9938 H   0  0  0  0  0  0  0  0  0  0  0  0
  1  2  2  0
  2  3  1  0
  3  4  2  0
  4  5  1  0
  5  6  2  0
  6  7  1  0
  7  8  2  0
  8  9  1  0
  9 10  2  0
 10 11  1  0
 11 12  2  0
 12 13  1  0
 13 14  2  0
  4 15  1  0
 15 16  2  0
 16  1  1  0
 14  5  1  0
 13  8  1  0
  1 17  1  0
  2 18  1  0
  3 19  1  0
  6 20  1  0
  7 21  1  0
  9 22  1  0
 10 23  1  0
 11 24  1  0
 12 25  1  0
 15 26  1  0
 16 27  1  0
M  END
$$$$

     RDKit          3D

 27 29  0  0  0  0  0  0  0  0999 V2000
    3.6808    0.5841   -2.7843 C   0  0  0  0  0  0  0  0  0  0  0  0
    2.7986    1.5994   -2.3955 C   0  0  0  0  0  0  0  0  0  0  0  0
    1.7443    1.3222   -1.5317 C   0  0  0  0  0  0  0  0  0  0  0  0
    1.5602    0.0288   -1.0293 C   0  0  0  0  0  0  0  0  0  0  0  0
    0.4375   -0.2443   -0.0788 C   0  0  0  0  0  0  0  0  0  0  0  0
    0.4893   -1.3402    0.8042 C   0  0  0  0  0  0  0  0  0  0  0  0
   -0.5400   -1.5765    1.6584 C   0  0  0  0  0  0  0  0  0  0  0  0
   -1.6593   -0.7136    1.6515 C   0  0  0  0  0  0  0  0  0  0  0  0
   -2.7836   -0.8805    2.4927 C   0  0  0  0  0  0  0  0  0  0  0  0
   -3.8397   -0.0069    2.4278 C   0  0  0  0  0  0  0  0  0  0  0  0
   -3.8170    1.0690    1.5188 C   0  0  0  0  0  0  0  0  0  0  0  0
   -2.7368    1.2668    0.6735 C   0  0  0  0  0  0  0  0  0  0  0  0
   -1.6321    0.3809    0.7233 C   0  0  0  0  0  0  0  0  0  0  0  0
   -0.5856    0.5998   -0.1014 N   0  0  0  0  0  0  0  0  0  0  0  0
    2.4368   -0.9847   -1.4366 C   0  0  0  0  0  0  0  0  0  0  0  0
    3.4937   -0.7077   -2.3028 C   0  0  0  0  0  0  0  0  0  0  0  0
    4.5001    0.8024   -3.4541 H   0  0  0  0  0  0  0  0  0  0  0  0
    2.9372    2.6020   -2.7682 H   0  0  0  0  0  0  0  0  0  0  0  0
    1.0584    2.1054   -1.2449 H   0  0  0  0  0  0  0  0  0  0  0  0
    1.3555   -1.9839    0.8059 H   0  0  0  0  0  0  0  0  0  0  0  0
   -0.5263   -2.4087    2.3456 H   0  0  0  0  0  0  0  0  0  0  0  0
   -2.7826   -1.7090    3.1812 H   0  0  0  0  0  0  0  0  0  0  0  0
   -4.6925   -0.1428    3.0793 H   0  0  0  0  0  0  0  0  0  0  0  0
   -4.6509    1.7508    1.4748 H   0  0  0  0  0  0  0  0  0  0  0  0
   -2.7103    2.0832   -0.0308 H   0  0  0  0  0  0  0  0  0  0  0  0
    2.3039   -1.9949   -1.0827 H   0  0  0  0  0  0  0  0  0  0  0  0
    4.1602   -1.5009   -2.5959 H   0  0  0  0  0  0  0  0  0  0  0  0
  1  2  2  0
  2  3  1  0
  3  4  2  0
  4  5  1  0
  5  6  2  0
  6  7  1  0
  7  8  2  0
  8  9  1  0
  9 10  2  0
 10 11  1  0
 11 12  2  0
 12 13  1  0
 13 14  2  0
  4 15  1  0
 15 16  2  0
 16  1  1  0
 14  5  1  0
 13  8  1  0
  1 17  1  0
  2 18  1  0
  3 19  1  0
  6 20  1  0
  7 21  1  0
  9 22  1  0
 10 23  1  0
 11 24  1  0
 12 25  1  0
 15 26  1  0
 16 27  1  0
M  END
$$$$

     RDKit          3D

 27 29  0  0  0  0  0  0  0  0999 V2000
   -4.0181    0.8521    2.1928 C   0  0  0  0  0  0  0  0  0  0  0  0
   -3.7788    1.0216    0.8239 C   0  0  0  0  0  0  0  0  0  0  0  0
   -2.5336    0.7264    0.2835 C   0  0  0  0  0  0  0  0  0  0  0  0
   -1.4934    0.2631    1.0981 C   0  0  0  0  0  0  0  0  0  0  0  0
   -0.1625   -0.0540    0.4875 C   0  0  0  0  0  0  0  0  0  0  0  0
    0.8772   -0.6199    1.2509 C   0  0  0  0  0  0  0  0  0  0  0  0
    2.0740   -0.9048    0.6763 C   0  0  0  0  0  0  0  0  0  0  0  0
    2.2674   -0.6289   -0.6960 C   0  0  0  0  0  0  0  0  0  0  0  0
    3.4768   -0.8884   -1.3831 C   0  0  0  0  0  0  0  0  0  0  0  0
    3.5951   -0.5961   -2.7185 C   0  0  0  0  0  0  0  0  0  0  0  0
    2.5116   -0.0284   -3.4195 C   0  0  0  0  0  0  0  0  0  0  0  0
    1.3093    0.2406   -2.7834 C   0  0  0  0  0  0  0  0  0  0  0  0
    1.1607   -0.0505   -1.4034 C   0  0  0  0  0  0  0  0  0  0  0  0
   -0.0202    0.2172   -0.8047 N   0  0  0  0  0  0  0  0  0  0  0  0
   -1.7398    0.1132    2.4696 C   0  0  0  0  0  0  0  0  0  0  0  0
   -2.9917    0.3995    3.0116 C   0  0  0  0  0  0  0  0  0  0  0  0
   -4.9914    1.0706    2.6067 H   0  0  0  0  0  0  0  0  0  0  0  0
   -4.5676    1.3796    0.1821 H   0  0  0  0  0  0  0  0  0  0  0  0
   -2.3646    0.8593   -0.7714 H   0  0  0  0  0  0  0  0  0  0  0  0
    0.7207   -0.8308    2.2981 H   0  0  0  0  0  0  0  0  0  0  0  0
    2.8845   -1.3374    1.2417 H   0  0  0  0  0  0  0  0  0  0  0  0
    4.2910   -1.3206   -0.8274 H   0  0  0  0  0  0  0  0  0  0  0  0
    4.5226   -0.7979   -3.2364 H   0  0  0  0  0  0  0  0  0  0  0  0
    2.6137    0.2008   -4.4666 H   0  0  0  0  0  0  0  0  0  0  0  0
    0.4722    0.6734   -3.3098 H   0  0  0  0  0  0  0  0  0  0  0  0
   -0.9635   -0.2296    3.1299 H   0  0  0  0  0  0  0  0  0  0  0  0
   -3.1516    0.2697    4.0675 H   0  0  0  0  0  0  0  0  0  0  0  0
  1  2  2  0
  2  3  1  0
  3  4  2  0
  4  5  1  0
  5  6  2  0
  6  7  1  0
  7  8  2  0
  8  9  1  0
  9 10  2  0
 10 11  1  0
 11 12  2  0
 12 13  1  0
 13 14  2  0
  4 15  1  0
 15 16  2  0
 16  1  1  0
 14  5  1  0
 13  8  1  0
  1 17  1  0
  2 18  1  0
  3 19  1  0
  6 20  1  0
  7 21  1  0
  9 22  1  0
 10 23  1  0
 11 24  1  0
 12 25  1  0
 15 26  1  0
 16 27  1  0
M  END
$$$$

     RDKit          3D

 27 29  0  0  0  0  0  0  0  0999 V2000
    2.5686   -3.7822   -0.8713 C   0  0  0  0  0  0  0  0  0  0  0  0
    2.3655   -3.2113    0.3897 C   0  0  0  0  0  0  0  0  0  0  0  0
    1.5864   -2.0685    0.5263 C   0  0  0  0  0  0  0  0  0  0  0  0
    1.0075   -1.4604   -0.5950 C   0  0  0  0  0  0  0  0  0  0  0  0
    0.1981   -0.2123   -0.4240 C   0  0  0  0  0  0  0  0  0  0  0  0
   -0.1055    0.6144   -1.5229 C   0  0  0  0  0  0  0  0  0  0  0  0
   -0.8413    1.7426   -1.3465 C   0  0  0  0  0  0  0  0  0  0  0  0
   -1.2949    2.0821   -0.0517 C   0  0  0  0  0  0  0  0  0  0  0  0
   -2.0625    3.2341    0.2352 C   0  0  0  0  0  0  0  0  0  0  0  0
   -2.4750    3.4955    1.5179 C   0  0  0  0  0  0  0  0  0  0  0  0
   -2.1324    2.6208    2.5677 C   0  0  0  0  0  0  0  0  0  0  0  0
   -1.3748    1.4854    2.3321 C   0  0  0  0  0  0  0  0  0  0  0  0
   -0.9398    1.1906    1.0150 C   0  0  0  0  0  0  0  0  0  0  0  0
   -0.2070    0.0775    0.8074 N   0  0  0  0  0  0  0  0  0  0  0  0
    1.2071   -2.0474   -1.8512 C   0  0  0  0  0  0  0  0  0  0  0  0
    1.9858   -3.1955   -1.9888 C   0  0  0  0  0  0  0  0  0  0  0  0
    3.1749   -4.6697   -0.9721 H   0  0  0  0  0  0  0  0  0  0  0  0
    2.8121   -3.6626    1.2623 H   0  0  0  0  0  0  0  0  0  0  0  0
    1.4228   -1.6444    1.5021 H   0  0  0  0  0  0  0  0  0  0  0  0
    0.2526    0.3513   -2.5066 H   0  0  0  0  0  0  0  0  0  0  0  0
   -1.0904    2.3899   -2.1733 H   0  0  0  0  0  0  0  0  0  0  0  0
   -2.3103    3.8936   -0.5794 H   0  0  0  0  0  0  0  0  0  0  0  0
   -3.0663    4.3764    1.7244 H   0  0  0  0  0  0  0  0  0  0  0  0
   -2.4592    2.8345    3.5714 H   0  0  0  0  0  0  0  0  0  0  0  0
   -1.1001    0.8125    3.1289 H   0  0  0  0  0  0  0  0  0  0  0  0
    0.7506   -1.6243   -2.7312 H   0  0  0  0  0  0  0  0  0  0  0  0
    2.1272   -3.6228   -2.9665 H   0  0  0  0  0  0  0  0  0  0  0  0
  1  2  2  0
  2  3  1  0
  3  4  2  0
  4  5  1  0
  5  6  2  0
  6  7  1  0
  7  8  2  0
  8  9  1  0
  9 10  2  0
 10 11  1  0
 11 12  2  0
 12 13  1  0
 13 14  2  0
  4 15  1  0
 15 16  2  0
 16  1  1  0
 14  5  1  0
 13  8  1  0
  1 17  1  0
  2 18  1  0
  3 19  1  0
  6 20  1  0
  7 21  1  0
  9 22  1  0
 10 23  1  0
 11 24  1  0
 12 25  1  0
 15 26  1  0
 16 27  1  0
M  END
$$$$

     RDKit          3D

 27 29  0  0  0  0  0  0  0  0999 V2000
   -4.2859    0.4487   -1.7514 C   0  0  0  0  0  0  0  0  0  0  0  0
   -3.9795   -0.1233   -0.5109 C   0  0  0  0  0  0  0  0  0  0  0  0
   -2.6574   -0.2353   -0.0964 C   0  0  0  0  0  0  0  0  0  0  0  0
   -1.6141    0.2134   -0.9173 C   0  0  0  0  0  0  0  0  0  0  0  0
   -0.1954    0.0685   -0.4650 C   0  0  0  0  0  0  0  0  0  0  0  0
    0.8702    0.1422   -1.3835 C   0  0  0  0  0  0  0  0  0  0  0  0
    2.1522    0.0255   -0.9527 C   0  0  0  0  0  0  0  0  0  0  0  0
    2.4061   -0.1755    0.4231 C   0  0  0  0  0  0  0  0  0  0  0  0
    3.7022   -0.3047    0.9713 C   0  0  0  0  0  0  0  0  0  0  0  0
    3.8740   -0.4989    2.3193 C   0  0  0  0  0  0  0  0  0  0  0  0
    2.7580   -0.5740    3.1756 C   0  0  0  0  0  0  0  0  0  0  0  0
    1.4691   -0.4558    2.6793 C   0  0  0  0  0  0  0  0  0  0  0  0
    1.2658   -0.2537    1.2909 C   0  0  0  0  0  0  0  0  0  0  0  0
    0.0027   -0.1374    0.8314 N   0  0  0  0  0  0  0  0  0  0  0  0
   -1.9326    0.7925   -2.1529 C   0  0  0  0  0  0  0  0  0  0  0  0
   -3.2579    0.9055   -2.5679 C   0  0  0  0  0  0  0  0  0  0  0  0
   -5.3152    0.5313   -2.0718 H   0  0  0  0  0  0  0  0  0  0  0  0
   -4.7738   -0.4803    0.1269 H   0  0  0  0  0  0  0  0  0  0  0  0
   -2.4294   -0.6712    0.8634 H   0  0  0  0  0  0  0  0  0  0  0  0
    0.6639    0.2723   -2.4355 H   0  0  0  0  0  0  0  0  0  0  0  0
    2.9852    0.0774   -1.6380 H   0  0  0  0  0  0  0  0  0  0  0  0
    4.5441   -0.2472    0.3023 H   0  0  0  0  0  0  0  0  0  0  0  0
    4.8726   -0.5927    2.7267 H   0  0  0  0  0  0  0  0  0  0  0  0
    2.9005   -0.7256    4.2325 H   0  0  0  0  0  0  0  0  0  0  0  0
    0.6064   -0.5168    3.3236 H   0  0  0  0  0  0  0  0  0  0  0  0
   -1.1554    1.1629   -2.7987 H   0  0  0  0  0  0  0  0  0  0  0  0
   -3.4761    1.3522   -3.5241 H   0  0  0  0  0  0  0  0  0  0  0  0
  1  2  2  0
  2  3  1  0
  3  4  2  0
  4  5  1  0
  5  6  2  0
  6  7  1  0
  7  8  2  0
  8  9  1  0
  9 10  2  0
 10 11  1  0
 11 12  2  0
 12 13  1  0
 13 14  2  0
  4 15  1  0
 15 16  2  0
 16  1  1  0
 14  5  1  0
 13  8  1  0
  1 17  1  0
  2 18  1  0
  3 19  1  0
  6 20  1  0
  7 21  1  0
  9 22  1  0
 10 23  1  0
 11 24  1  0
 12 25  1  0
 15 26  1  0
 16 27  1  0
M  END
$$$$

     RDKit          3D

 27 29  0  0  0  0  0  0  0  0999 V2000
   -0.2817   -2.3892    3.9818 C   0  0  0  0  0  0  0  0  0  0  0  0
   -1.3162   -1.6093    3.4518 C   0  0  0  0  0  0  0  0  0  0  0  0
   -1.1266   -0.8975    2.2714 C   0  0  0  0  0  0  0  0  0  0  0  0
    0.1064   -0.9388    1.6104 C   0  0  0  0  0  0  0  0  0  0  0  0
    0.3115   -0.1406    0.3639 C   0  0  0  0  0  0  0  0  0  0  0  0
    1.5916    0.3357    0.0228 C   0  0  0  0  0  0  0  0  0  0  0  0
    1.7703    1.0503   -1.1175 C   0  0  0  0  0  0  0  0  0  0  0  0
    0.6628    1.3056   -1.9586 C   0  0  0  0  0  0  0  0  0  0  0  0
    0.7451    2.0306   -3.1685 C   0  0  0  0  0  0  0  0  0  0  0  0
   -0.3731    2.2313   -3.9404 C   0  0  0  0  0  0  0  0  0  0  0  0
   -1.6216    1.7226   -3.5313 C   0  0  0  0  0  0  0  0  0  0  0  0
   -1.7483    1.0112   -2.3486 C   0  0  0  0  0  0  0  0  0  0  0  0
   -0.6086    0.7895   -1.5360 C   0  0  0  0  0  0  0  0  0  0  0  0
   -0.7559    0.0963   -0.3869 N   0  0  0  0  0  0  0  0  0  0  0  0
    1.1318   -1.7336    2.1388 C   0  0  0  0  0  0  0  0  0  0  0  0
    0.9391   -2.4522    3.3172 C   0  0  0  0  0  0  0  0  0  0  0  0
   -0.4311   -2.9390    4.9003 H   0  0  0  0  0  0  0  0  0  0  0  0
   -2.2667   -1.5601    3.9585 H   0  0  0  0  0  0  0  0  0  0  0  0
   -1.9337   -0.3112    1.8561 H   0  0  0  0  0  0  0  0  0  0  0  0
    2.4238    0.1364    0.6821 H   0  0  0  0  0  0  0  0  0  0  0  0
    2.7412    1.4304   -1.4026 H   0  0  0  0  0  0  0  0  0  0  0  0
    1.7073    2.4161   -3.4640 H   0  0  0  0  0  0  0  0  0  0  0  0
   -0.2954    2.7828   -4.8687 H   0  0  0  0  0  0  0  0  0  0  0  0
   -2.4950    1.8822   -4.1442 H   0  0  0  0  0  0  0  0  0  0  0  0
   -2.6973    0.6185   -2.0216 H   0  0  0  0  0  0  0  0  0  0  0  0
    2.0799   -1.8073    1.6307 H   0  0  0  0  0  0  0  0  0  0  0  0
    1.7406   -3.0606    3.7030 H   0  0  0  0  0  0  0  0  0  0  0  0
  1  2  2  0
  2  3  1  0
  3  4  2  0
  4  5  1  0
  5  6  2  0
  6  7  1  0
  7  8  2  0
  8  9  1  0
  9 10  2  0
 10 11  1  0
 11 12  2  0
 12 13  1  0
 13 14  2  0
  4 15  1  0
 15 16  2  0
 16  1  1  0
 14  5  1  0
 13  8  1  0
  1 17  1  0
  2 18  1  0
  3 19  1  0
  6 20  1  0
  7 21  1  0
  9 22  1  0
 10 23  1  0
 11 24  1  0
 12 25  1  0
 15 26  1  0
 16 27  1  0
M  END
$$$$

     RDKit          3D

 27 29  0  0  0  0  0  0  0  0999 V2000
    0.9829   -4.4375    0.9990 C   0  0  0  0  0  0  0  0  0  0  0  0
    0.6176   -3.4576    1.9289 C   0  0  0  0  0  0  0  0  0  0  0  0
    0.3067   -2.1709    1.5098 C   0  0  0  0  0  0  0  0  0  0  0  0
    0.3558   -1.8325    0.1521 C   0  0  0  0  0  0  0  0  0  0  0  0
    0.0193   -0.4362   -0.2716 C   0  0  0  0  0  0  0  0  0  0  0  0
   -0.2220   -0.1266   -1.6242 C   0  0  0  0  0  0  0  0  0  0  0  0
   -0.4915    1.1515   -1.9972 C   0  0  0  0  0  0  0  0  0  0  0  0
   -0.5418    2.1657   -1.0142 C   0  0  0  0  0  0  0  0  0  0  0  0
   -0.8021    3.5256   -1.3018 C   0  0  0  0  0  0  0  0  0  0  0  0
   -0.8433    4.4575   -0.2958 C   0  0  0  0  0  0  0  0  0  0  0  0
   -0.6251    4.0677    1.0407 C   0  0  0  0  0  0  0  0  0  0  0  0
   -0.3658    2.7451    1.3665 C   0  0  0  0  0  0  0  0  0  0  0  0
   -0.3091    1.7646    0.3442 C   0  0  0  0  0  0  0  0  0  0  0  0
   -0.0463    0.4844    0.6839 N   0  0  0  0  0  0  0  0  0  0  0  0
    0.7304   -2.8186   -0.7708 C   0  0  0  0  0  0  0  0  0  0  0  0
    1.0394   -4.1110   -0.3508 C   0  0  0  0  0  0  0  0  0  0  0  0
    1.2227   -5.4376    1.3293 H   0  0  0  0  0  0  0  0  0  0  0  0
    0.5751   -3.7034    2.9778 H   0  0  0  0  0  0  0  0  0  0  0  0
    0.0343   -1.4221    2.2340 H   0  0  0  0  0  0  0  0  0  0  0  0
   -0.1970   -0.9122   -2.3640 H   0  0  0  0  0  0  0  0  0  0  0  0
   -0.6680    1.4147   -3.0294 H   0  0  0  0  0  0  0  0  0  0  0  0
   -0.9653    3.8030   -2.3297 H   0  0  0  0  0  0  0  0  0  0  0  0
   -1.0478    5.4936   -0.5279 H   0  0  0  0  0  0  0  0  0  0  0  0
   -0.6604    4.8033    1.8268 H   0  0  0  0  0  0  0  0  0  0  0  0
   -0.2094    2.4323    2.3871 H   0  0  0  0  0  0  0  0  0  0  0  0
    0.7856   -2.5927   -1.8229 H   0  0  0  0  0  0  0  0  0  0  0  0
    1.3249   -4.8499   -1.0796 H   0  0  0  0  0  0  0  0  0  0  0  0
  1  2  2  0
  2  3  1  0
  3  4  2  0
  4  5  1  0
  5  6  2  0
  6  7  1  0
  7  8  2  0
  8  9  1  0
  9 10  2  0
 10 11  1  0
 11 12  2  0
 12 13  1  0
 13 14  2  0
  4 15  1  0
 15 16  2  0
 16  1  1  0
 14  5  1  0
 13  8  1  0
  1 17  1  0
  2 18  1  0
  3 19  1  0
  6 20  1  0
  7 21  1  0
  9 22  1  0
 10 23  1  0
 11 24  1  0
 12 25  1  0
 15 26  1  0
 16 27  1  0
M  END
$$$$

     RDKit          3D

 27 29  0  0  0  0  0  0  0  0999 V2000
    4.3225    0.1839   -1.7172 C   0  0  0  0  0  0  0  0  0  0  0  0
    3.8554   -0.7409   -0.7769 C   0  0  0  0  0  0  0  0  0  0  0  0
    2.5449   -0.6791   -0.3200 C   0  0  0  0  0  0  0  0  0  0  0  0
    1.6699    0.3090   -0.7902 C   0  0  0  0  0  0  0  0  0  0  0  0
    0.2609    0.3502   -0.2838 C   0  0  0  0  0  0  0  0  0  0  0  0
   -0.6024    1.4172   -0.6020 C   0  0  0  0  0  0  0  0  0  0  0  0
   -1.8808    1.4228   -0.1429 C   0  0  0  0  0  0  0  0  0  0  0  0
   -2.3375    0.3499    0.6566 C   0  0  0  0  0  0  0  0  0  0  0  0
   -3.6505    0.2596    1.1726 C   0  0  0  0  0  0  0  0  0  0  0  0
   -4.0297   -0.8148    1.9392 C   0  0  0  0  0  0  0  0  0  0  0  0
   -3.1083   -1.8405    2.2280 C   0  0  0  0  0  0  0  0  0  0  0  0
   -1.8081   -1.7870    1.7481 C   0  0  0  0  0  0  0  0  0  0  0  0
   -1.3954   -0.6914    0.9476 C   0  0  0  0  0  0  0  0  0  0  0  0
   -0.1298   -0.6643    0.4782 N   0  0  0  0  0  0  0  0  0  0  0  0
    2.1500    1.2296   -1.7311 C   0  0  0  0  0  0  0  0  0  0  0  0
    3.4639    1.1685   -2.1886 C   0  0  0  0  0  0  0  0  0  0  0  0
    5.3410    0.1336   -2.0708 H   0  0  0  0  0  0  0  0  0  0  0  0
    4.5160   -1.5056   -0.4033 H   0  0  0  0  0  0  0  0  0  0  0  0
    2.1960   -1.3918    0.4085 H   0  0  0  0  0  0  0  0  0  0  0  0
   -0.2459    2.2338   -1.2120 H   0  0  0  0  0  0  0  0  0  0  0  0
   -2.5607    2.2302   -0.3705 H   0  0  0  0  0  0  0  0  0  0  0  0
   -4.3414    1.0523    0.9419 H   0  0  0  0  0  0  0  0  0  0  0  0
   -5.0384   -0.8719    2.3233 H   0  0  0  0  0  0  0  0  0  0  0  0
   -3.4132   -2.6836    2.8242 H   0  0  0  0  0  0  0  0  0  0  0  0
   -1.0932   -2.5639    1.9671 H   0  0  0  0  0  0  0  0  0  0  0  0
    1.5099    2.0032   -2.1176 H   0  0  0  0  0  0  0  0  0  0  0  0
    3.8048    1.8912   -2.9081 H   0  0  0  0  0  0  0  0  0  0  0  0
  1  2  2  0
  2  3  1  0
  3  4  2  0
  4  5  1  0
  5  6  2  0
  6  7  1  0
  7  8  2  0
  8  9  1  0
  9 10  2  0
 10 11  1  0
 11 12  2  0
 12 13  1  0
 13 14  2  0
  4 15  1  0
 15 16  2  0
 16  1  1  0
 14  5  1  0
 13  8  1  0
  1 17  1  0
  2 18  1  0
  3 19  1  0
  6 20  1  0
  7 21  1  0
  9 22  1  0
 10 23  1  0
 11 24  1  0
 12 25  1  0
 15 26  1  0
 16 27  1  0
M  END
$$$$
