
     RDKit          3D

 27 29  0  0  0  0  0  0  0  0999 V2000
    3.9583    0.8421    0.5514 C   0  0  0  0  0  0  0  0  0  0  0  0
    3.3226    0.1302    1.5728 C   0  0  0  0  0  0  0  0  0  0  0  0
    1.9355    0.0400    1.6061 C   0  0  0  0  0  0  0  0  0  0  0  0
    1.1745    0.6669    0.6144 C   0  0  0  0  0  0  0  0  0  0  0  0
   -0.2971    0.5739    0.6546 C   0  0  0  0  0  0  0  0  0  0  0  0
   -0.9236    1.3158    1.5193 N   0  0  0  0  0  0  0  0  0  0  0  0
   -2.2671    1.2814    1.5776 C   0  0  0  0  0  0  0  0  0  0  0  0
   -3.0446    0.4978    0.7626 C   0  0  0  0  0  0  0  0  0  0  0  0
   -2.4124   -0.3442   -0.1856 C   0  0  0  0  0  0  0  0  0  0  0  0
   -3.1165   -1.1914   -1.0517 C   0  0  0  0  0  0  0  0  0  0  0  0
   -2.4432   -1.9982   -1.9399 C   0  0  0  0  0  0  0  0  0  0  0  0
   -1.0429   -1.9797   -1.9950 C   0  0  0  0  0  0  0  0  0  0  0  0
   -0.3196   -1.1600   -1.1594 C   0  0  0  0  0  0  0  0  0  0  0  0
   -0.9853   -0.3259   -0.2508 C   0  0  0  0  0  0  0  0  0  0  0  0
    1.8044    1.3909   -0.4009 C   0  0  0  0  0  0  0  0  0  0  0  0
    3.1973    1.4771   -0.4292 C   0  0  0  0  0  0  0  0  0  0  0  0
    5.0368    0.9058    0.5283 H   0  0  0  0  0  0  0  0  0  0  0  0
    3.9166   -0.3530    2.3347 H   0  0  0  0  0  0  0  0  0  0  0  0
    1.4379   -0.5002    2.3991 H   0  0  0  0  0  0  0  0  0  0  0  0
   -2.7268    1.9247    2.3164 H   0  0  0  0  0  0  0  0  0  0  0  0
   -4.1283    0.5084    0.8435 H   0  0  0  0  0  0  0  0  0  0  0  0
   -4.2003   -1.1974   -1.0099 H   0  0  0  0  0  0  0  0  0  0  0  0
   -2.9991   -2.6534   -2.6079 H   0  0  0  0  0  0  0  0  0  0  0  0
   -0.5304   -2.6232   -2.6972 H   0  0  0  0  0  0  0  0  0  0  0  0
    0.7556   -1.1497   -1.1815 H   0  0  0  0  0  0  0  0  0  0  0  0
    1.2135    1.8831   -1.1599 H   0  0  0  0  0  0  0  0  0  0  0  0
    3.6842    2.0381   -1.2119 H   0  0  0  0  0  0  0  0  0  0  0  0
  1  2  2  0
  2  3  1  0
  3  4  2  0
  4  5  1  0
  5  6  2  0
  6  7  1  0
  7  8  2  0
  8  9  1  0
  9 10  2  0
 10 11  1  0
 11 12  2  0
 12 13  1  0
 13 14  2  0
  4 15  1  0
 15 16  2  0
 16  1  1  0
 14  5  1  0
 14  9  1  0
  1 17  1  0
  2 18  1  0
  3 19  1  0
  7 20  1  0
  8 21  1  0
 10 22  1  0
 11 23  1  0
 12 24  1  0
 13 25  1  0
 15 26  1  0
 16 27  1  0
M  END
$$$$

     RDKit          3D

 27 29  0  0  0  0  0  0  0  0999 V2000
    3.9980   -0.9000    0.4318 C   0  0  0  0  0  0  0  0  0  0  0  0
    3.7835    0.3989   -0.0390 C   0  0  0  0  0  0  0  0  0  0  0  0
    2.5143    0.7963   -0.4409 C   0  0  0  0  0  0  0  0  0  0  0  0
    1.4375   -0.0946   -0.3566 C   0  0  0  0  0  0  0  0  0  0  0  0
    0.0999    0.3501   -0.7970 C   0  0  0  0  0  0  0  0  0  0  0  0
    0.0277    0.8920   -1.9828 N   0  0  0  0  0  0  0  0  0  0  0  0
   -1.1584    1.2802   -2.4684 C   0  0  0  0  0  0  0  0  0  0  0  0
   -2.3406    1.1633   -1.7815 C   0  0  0  0  0  0  0  0  0  0  0  0
   -2.3259    0.6003   -0.4826 C   0  0  0  0  0  0  0  0  0  0  0  0
   -3.4825    0.4346    0.2911 C   0  0  0  0  0  0  0  0  0  0  0  0
   -3.4079   -0.1028    1.5524 C   0  0  0  0  0  0  0  0  0  0  0  0
   -2.1728   -0.4826    2.0876 C   0  0  0  0  0  0  0  0  0  0  0  0
   -1.0183   -0.3313    1.3576 C   0  0  0  0  0  0  0  0  0  0  0  0
   -1.0679    0.1862    0.0553 C   0  0  0  0  0  0  0  0  0  0  0  0
    1.6584   -1.4011    0.0909 C   0  0  0  0  0  0  0  0  0  0  0  0
    2.9334   -1.7971    0.4877 C   0  0  0  0  0  0  0  0  0  0  0  0
    4.9854   -1.2054    0.7426 H   0  0  0  0  0  0  0  0  0  0  0  0
    4.6093    1.0931   -0.0805 H   0  0  0  0  0  0  0  0  0  0  0  0
    2.3532    1.7928   -0.8307 H   0  0  0  0  0  0  0  0  0  0  0  0
   -1.1448    1.7020   -3.4649 H   0  0  0  0  0  0  0  0  0  0  0  0
   -3.2759    1.5050   -2.2161 H   0  0  0  0  0  0  0  0  0  0  0  0
   -4.4347    0.7421   -0.1230 H   0  0  0  0  0  0  0  0  0  0  0  0
   -4.3134   -0.2333    2.1417 H   0  0  0  0  0  0  0  0  0  0  0  0
   -2.1221   -0.8919    3.0882 H   0  0  0  0  0  0  0  0  0  0  0  0
   -0.0661   -0.5896    1.7738 H   0  0  0  0  0  0  0  0  0  0  0  0
    0.8379   -2.1021    0.1284 H   0  0  0  0  0  0  0  0  0  0  0  0
    3.0927   -2.8052    0.8349 H   0  0  0  0  0  0  0  0  0  0  0  0
  1  2  2  0
  2  3  1  0
  3  4  2  0
  4  5  1  0
  5  6  2  0
  6  7  1  0
  7  8  2  0
  8  9  1  0
  9 10  2  0
 10 11  1  0
 11 12  2  0
 12 13  1  0
 13 14  2  0
  4 15  1  0
 15 16  2  0
 16  1  1  0
 14  5  1  0
 14  9  1  0
  1 17  1  0
  2 18  1  0
  3 19  1  0
  7 20  1  0
  8 21  1  0
 10 22  1  0
 11 23  1  0
 12 24  1  0
 13 25  1  0
 15 26  1  0
 16 27  1  0
M  END
$$$$

     RDKit          3D

 27 29  0  0  0  0  0  0  0  0999 V2000
   -2.6971    1.8904    2.4471 C   0  0  0  0  0  0  0  0  0  0  0  0
   -1.6458    2.7148    2.0316 C   0  0  0  0  0  0  0  0  0  0  0  0
   -0.5327    2.1664    1.4034 C   0  0  0  0  0  0  0  0  0  0  0  0
   -0.4754    0.7894    1.1610 C   0  0  0  0  0  0  0  0  0  0  0  0
    0.7137    0.2103    0.5057 C   0  0  0  0  0  0  0  0  0  0  0  0
    1.8578    0.3558    1.1105 N   0  0  0  0  0  0  0  0  0  0  0  0
    2.9556   -0.2322    0.6071 C   0  0  0  0  0  0  0  0  0  0  0  0
    2.9632   -0.9798   -0.5427 C   0  0  0  0  0  0  0  0  0  0  0  0
    1.7581   -1.1296   -1.2685 C   0  0  0  0  0  0  0  0  0  0  0  0
    1.6694   -1.8621   -2.4611 C   0  0  0  0  0  0  0  0  0  0  0  0
    0.4802   -1.9360   -3.1476 C   0  0  0  0  0  0  0  0  0  0  0  0
   -0.6599   -1.2811   -2.6593 C   0  0  0  0  0  0  0  0  0  0  0  0
   -0.6139   -0.5736   -1.4801 C   0  0  0  0  0  0  0  0  0  0  0  0
    0.5833   -0.4985   -0.7540 C   0  0  0  0  0  0  0  0  0  0  0  0
   -1.5249   -0.0349    1.5766 C   0  0  0  0  0  0  0  0  0  0  0  0
   -2.6246    0.5152    2.2284 C   0  0  0  0  0  0  0  0  0  0  0  0
   -3.5578    2.3186    2.9405 H   0  0  0  0  0  0  0  0  0  0  0  0
   -1.7049    3.7786    2.2007 H   0  0  0  0  0  0  0  0  0  0  0  0
    0.2960    2.7969    1.1068 H   0  0  0  0  0  0  0  0  0  0  0  0
    3.8679   -0.0860    1.1706 H   0  0  0  0  0  0  0  0  0  0  0  0
    3.8807   -1.4324   -0.9096 H   0  0  0  0  0  0  0  0  0  0  0  0
    2.5556   -2.3643   -2.8296 H   0  0  0  0  0  0  0  0  0  0  0  0
    0.4208   -2.5048   -4.0729 H   0  0  0  0  0  0  0  0  0  0  0  0
   -1.5794   -1.3226   -3.2250 H   0  0  0  0  0  0  0  0  0  0  0  0
   -1.4844   -0.0728   -1.0995 H   0  0  0  0  0  0  0  0  0  0  0  0
   -1.4784   -1.0995    1.3905 H   0  0  0  0  0  0  0  0  0  0  0  0
   -3.4230   -0.1263    2.5697 H   0  0  0  0  0  0  0  0  0  0  0  0
  1  2  2  0
  2  3  1  0
  3  4  2  0
  4  5  1  0
  5  6  2  0
  6  7  1  0
  7  8  2  0
  8  9  1  0
  9 10  2  0
 10 11  1  0
 11 12  2  0
 12 13  1  0
 13 14  2  0
  4 15  1  0
 15 16  2  0
 16  1  1  0
 14  5  1  0
 14  9  1  0
  1 17  1  0
  2 18  1  0
  3 19  1  0
  7 20  1  0
  8 21  1  0
 10 22  1  0
 11 23  1  0
 12 24  1  0
 13 25  1  0
 15 26  1  0
 16 27  1  0
M  END
$$$$

     RDKit          3D

 27 29  0  0  0  0  0  0  0  0999 V2000
    4.0603    0.3613    0.4423 C   0  0  0  0  0  0  0  0  0  0  0  0
    3.6680   -0.6097   -0.4839 C   0  0  0  0  0  0  0  0  0  0  0  0
    2.3447   -0.6781   -0.9090 C   0  0  0  0  0  0  0  0  0  0  0  0
    1.4028    0.2249   -0.4088 C   0  0  0  0  0  0  0  0  0  0  0  0
    0.0071    0.1841   -0.8899 C   0  0  0  0  0  0  0  0  0  0  0  0
   -0.2122    0.4907   -2.1362 N   0  0  0  0  0  0  0  0  0  0  0  0
   -1.4749    0.5470   -2.5978 C   0  0  0  0  0  0  0  0  0  0  0  0
   -2.5789    0.2763   -1.8309 C   0  0  0  0  0  0  0  0  0  0  0  0
   -2.3972   -0.0951   -0.4760 C   0  0  0  0  0  0  0  0  0  0  0  0
   -3.4602   -0.4038    0.3841 C   0  0  0  0  0  0  0  0  0  0  0  0
   -3.2180   -0.7711    1.6873 C   0  0  0  0  0  0  0  0  0  0  0  0
   -1.9058   -0.8522    2.1703 C   0  0  0  0  0  0  0  0  0  0  0  0
   -0.8394   -0.5607    1.3527 C   0  0  0  0  0  0  0  0  0  0  0  0
   -1.0621   -0.1624    0.0280 C   0  0  0  0  0  0  0  0  0  0  0  0
    1.7913    1.1909    0.5261 C   0  0  0  0  0  0  0  0  0  0  0  0
    3.1191    1.2598    0.9421 C   0  0  0  0  0  0  0  0  0  0  0  0
    5.0906    0.4136    0.7626 H   0  0  0  0  0  0  0  0  0  0  0  0
    4.3964   -1.3071   -0.8680 H   0  0  0  0  0  0  0  0  0  0  0  0
    2.0398   -1.4239   -1.6308 H   0  0  0  0  0  0  0  0  0  0  0  0
   -1.5862    0.8180   -3.6401 H   0  0  0  0  0  0  0  0  0  0  0  0
   -3.5820    0.3446   -2.2450 H   0  0  0  0  0  0  0  0  0  0  0  0
   -4.4738   -0.3513    0.0020 H   0  0  0  0  0  0  0  0  0  0  0  0
   -4.0502   -1.0060    2.3484 H   0  0  0  0  0  0  0  0  0  0  0  0
   -1.7298   -1.1513    3.1944 H   0  0  0  0  0  0  0  0  0  0  0  0
    0.1733   -0.6387    1.7055 H   0  0  0  0  0  0  0  0  0  0  0  0
    1.0619    1.8872    0.9149 H   0  0  0  0  0  0  0  0  0  0  0  0
    3.4155    2.0129    1.6557 H   0  0  0  0  0  0  0  0  0  0  0  0
  1  2  2  0
  2  3  1  0
  3  4  2  0
  4  5  1  0
  5  6  2  0
  6  7  1  0
  7  8  2  0
  8  9  1  0
  9 10  2  0
 10 11  1  0
 11 12  2  0
 12 13  1  0
 13 14  2  0
  4 15  1  0
 15 16  2  0
 16  1  1  0
 14  5  1  0
 14  9  1  0
  1 17  1  0
  2 18  1  0
  3 19  1  0
  7 20  1  0
  8 21  1  0
 10 22  1  0
 11 23  1  0
 12 24  1  0
 13 25  1  0
 15 26  1  0
 16 27  1  0
M  END
$$$$

     RDKit          3D

 27 29  0  0  0  0  0  0  0  0999 V2000
    3.4958    1.7345   -1.2821 C   0  0  0  0  0  0  0  0  0  0  0  0
    2.8261    2.5074   -0.3278 C   0  0  0  0  0  0  0  0  0  0  0  0
    1.5334    2.1740    0.0580 C   0  0  0  0  0  0  0  0  0  0  0  0
    0.8971    1.0627   -0.5077 C   0  0  0  0  0  0  0  0  0  0  0  0
   -0.4927    0.7395   -0.1287 C   0  0  0  0  0  0  0  0  0  0  0  0
   -1.3955    1.6641   -0.3159 N   0  0  0  0  0  0  0  0  0  0  0  0
   -2.6878    1.3896   -0.0729 C   0  0  0  0  0  0  0  0  0  0  0  0
   -3.1384    0.1794    0.3930 C   0  0  0  0  0  0  0  0  0  0  0  0
   -2.2000   -0.8489    0.6455 C   0  0  0  0  0  0  0  0  0  0  0  0
   -2.5654   -2.1186    1.1123 C   0  0  0  0  0  0  0  0  0  0  0  0
   -1.6093   -3.0731    1.3646 C   0  0  0  0  0  0  0  0  0  0  0  0
   -0.2525   -2.7829    1.1684 C   0  0  0  0  0  0  0  0  0  0  0  0
    0.1406   -1.5492    0.7082 C   0  0  0  0  0  0  0  0  0  0  0  0
   -0.8182   -0.5698    0.4094 C   0  0  0  0  0  0  0  0  0  0  0  0
    1.5653    0.2930   -1.4642 C   0  0  0  0  0  0  0  0  0  0  0  0
    2.8595    0.6309   -1.8478 C   0  0  0  0  0  0  0  0  0  0  0  0
    4.4993    1.9973   -1.5796 H   0  0  0  0  0  0  0  0  0  0  0  0
    3.3193    3.3630    0.1072 H   0  0  0  0  0  0  0  0  0  0  0  0
    1.0119    2.7710    0.7938 H   0  0  0  0  0  0  0  0  0  0  0  0
   -3.3877    2.1921   -0.2685 H   0  0  0  0  0  0  0  0  0  0  0  0
   -4.1957    0.0094    0.5780 H   0  0  0  0  0  0  0  0  0  0  0  0
   -3.6159   -2.3336    1.2672 H   0  0  0  0  0  0  0  0  0  0  0  0
   -1.9048   -4.0595    1.7151 H   0  0  0  0  0  0  0  0  0  0  0  0
    0.4923   -3.5347    1.3893 H   0  0  0  0  0  0  0  0  0  0  0  0
    1.1806   -1.3120    0.5849 H   0  0  0  0  0  0  0  0  0  0  0  0
    1.0758   -0.5614   -1.9085 H   0  0  0  0  0  0  0  0  0  0  0  0
    3.3669    0.0355   -2.5913 H   0  0  0  0  0  0  0  0  0  0  0  0
  1  2  2  0
  2  3  1  0
  3  4  2  0
  4  5  1  0
  5  6  2  0
  6  7  1  0
  7  8  2  0
  8  9  1  0
  9 10  2  0
 10 11  1  0
 11 12  2  0
 12 13  1  0
 13 14  2  0
  4 15  1  0
 15 16  2  0
 16  1  1  0
 14  5  1  0
 14  9  1  0
  1 17  1  0
  2 18  1  0
  3 19  1  0
  7 20  1  0
  8 21  1  0
 10 22  1  0
 11 23  1  0
 12 24  1  0
 13 25  1  0
 15 26  1  0
 16 27  1  0
M  END
$$$$

     RDKit          3D

 27 29  0  0  0  0  0  0  0  0999 V2000
   -0.2918   -2.7363   -3.0252 C   0  0  0  0  0  0  0  0  0  0  0  0
   -0.3169   -3.0783   -1.6706 C   0  0  0  0  0  0  0  0  0  0  0  0
    0.0515   -2.1517   -0.7060 C   0  0  0  0  0  0  0  0  0  0  0  0
    0.4749   -0.8740   -1.0961 C   0  0  0  0  0  0  0  0  0  0  0  0
    0.9096    0.0931   -0.0702 C   0  0  0  0  0  0  0  0  0  0  0  0
    2.1841    0.3246    0.0395 N   0  0  0  0  0  0  0  0  0  0  0  0
    2.6287    1.1640    0.9951 C   0  0  0  0  0  0  0  0  0  0  0  0
    1.8065    1.8164    1.8789 C   0  0  0  0  0  0  0  0  0  0  0  0
    0.4073    1.6043    1.7984 C   0  0  0  0  0  0  0  0  0  0  0  0
   -0.5135    2.2122    2.6607 C   0  0  0  0  0  0  0  0  0  0  0  0
   -1.8614    1.9705    2.5271 C   0  0  0  0  0  0  0  0  0  0  0  0
   -2.3339    1.1254    1.5142 C   0  0  0  0  0  0  0  0  0  0  0  0
   -1.4575    0.5158    0.6466 C   0  0  0  0  0  0  0  0  0  0  0  0
   -0.0791    0.7256    0.7834 C   0  0  0  0  0  0  0  0  0  0  0  0
    0.5035   -0.5266   -2.4468 C   0  0  0  0  0  0  0  0  0  0  0  0
    0.1203   -1.4601   -3.4119 C   0  0  0  0  0  0  0  0  0  0  0  0
   -0.5865   -3.4571   -3.7737 H   0  0  0  0  0  0  0  0  0  0  0  0
   -0.6275   -4.0705   -1.3753 H   0  0  0  0  0  0  0  0  0  0  0  0
    0.0198   -2.4026    0.3463 H   0  0  0  0  0  0  0  0  0  0  0  0
    3.7000    1.3087    1.0378 H   0  0  0  0  0  0  0  0  0  0  0  0
    2.2143    2.4826    2.6356 H   0  0  0  0  0  0  0  0  0  0  0  0
   -0.1415    2.8785    3.4319 H   0  0  0  0  0  0  0  0  0  0  0  0
   -2.5682    2.4449    3.2073 H   0  0  0  0  0  0  0  0  0  0  0  0
   -3.3975    0.9511    1.4163 H   0  0  0  0  0  0  0  0  0  0  0  0
   -1.8089   -0.1278   -0.1394 H   0  0  0  0  0  0  0  0  0  0  0  0
    0.8252    0.4604   -2.7462 H   0  0  0  0  0  0  0  0  0  0  0  0
    0.1384   -1.1930   -4.4576 H   0  0  0  0  0  0  0  0  0  0  0  0
  1  2  2  0
  2  3  1  0
  3  4  2  0
  4  5  1  0
  5  6  2  0
  6  7  1  0
  7  8  2  0
  8  9  1  0
  9 10  2  0
 10 11  1  0
 11 12  2  0
 12 13  1  0
 13 14  2  0
  4 15  1  0
 15 16  2  0
 16  1  1  0
 14  5  1  0
 14  9  1  0
  1 17  1  0
  2 18  1  0
  3 19  1  0
  7 20  1  0
  8 21  1  0
 10 22  1  0
 11 23  1  0
 12 24  1  0
 13 25  1  0
 15 26  1  0
 16 27  1  0
M  END
$$$$

     RDKit          3D

 27 29  0  0  0  0  0  0  0  0999 V2000
    0.3214   -1.3046    3.8575 C   0  0  0  0  0  0  0  0  0  0  0  0
    0.6052   -2.1923    2.8158 C   0  0  0  0  0  0  0  0  0  0  0  0
    0.2392   -1.8848    1.5099 C   0  0  0  0  0  0  0  0  0  0  0  0
   -0.4326   -0.6847    1.2424 C   0  0  0  0  0  0  0  0  0  0  0  0
   -0.8450   -0.3615   -0.1383 C   0  0  0  0  0  0  0  0  0  0  0  0
   -2.0148   -0.7691   -0.5345 N   0  0  0  0  0  0  0  0  0  0  0  0
   -2.4250   -0.4839   -1.7892 C   0  0  0  0  0  0  0  0  0  0  0  0
   -1.6839    0.2363   -2.6920 C   0  0  0  0  0  0  0  0  0  0  0  0
   -0.4038    0.7028   -2.3063 C   0  0  0  0  0  0  0  0  0  0  0  0
    0.4311    1.4416   -3.1534 C   0  0  0  0  0  0  0  0  0  0  0  0
    1.6727    1.8533   -2.7261 C   0  0  0  0  0  0  0  0  0  0  0  0
    2.1203    1.5361   -1.4356 C   0  0  0  0  0  0  0  0  0  0  0  0
    1.3236    0.8149   -0.5767 C   0  0  0  0  0  0  0  0  0  0  0  0
    0.0540    0.3937   -0.9891 C   0  0  0  0  0  0  0  0  0  0  0  0
   -0.7114    0.2090    2.2778 C   0  0  0  0  0  0  0  0  0  0  0  0
   -0.3363   -0.1056    3.5852 C   0  0  0  0  0  0  0  0  0  0  0  0
    0.6055   -1.5501    4.8707 H   0  0  0  0  0  0  0  0  0  0  0  0
    1.1189   -3.1183    3.0301 H   0  0  0  0  0  0  0  0  0  0  0  0
    0.4607   -2.5624    0.6990 H   0  0  0  0  0  0  0  0  0  0  0  0
   -3.4032   -0.8577   -2.0654 H   0  0  0  0  0  0  0  0  0  0  0  0
   -2.0606    0.4370   -3.6924 H   0  0  0  0  0  0  0  0  0  0  0  0
    0.0769    1.6872   -4.1482 H   0  0  0  0  0  0  0  0  0  0  0  0
    2.3108    2.4310   -3.3933 H   0  0  0  0  0  0  0  0  0  0  0  0
    3.0998    1.8615   -1.1166 H   0  0  0  0  0  0  0  0  0  0  0  0
    1.6622    0.5558    0.4109 H   0  0  0  0  0  0  0  0  0  0  0  0
   -1.2291    1.1317    2.0707 H   0  0  0  0  0  0  0  0  0  0  0  0
   -0.5565    0.5830    4.3872 H   0  0  0  0  0  0  0  0  0  0  0  0
  1  2  2  0
  2  3  1  0
  3  4  2  0
  4  5  1  0
  5  6  2  0
  6  7  1  0
  7  8  2  0
  8  9  1  0
  9 10  2  0
 10 11  1  0
 11 12  2  0
 12 13  1  0
 13 14  2  0
  4 15  1  0
 15 16  2  0
 16  1  1  0
 14  5  1  0
 14  9  1  0
  1 17  1  0
  2 18  1  0
  3 19  1  0
  7 20  1  0
  8 21  1  0
 10 22  1  0
 11 23  1  0
 12 24  1  0
 13 25  1  0
 15 26  1  0
 16 27  1  0
M  END
$$$$

     RDKit          3D

 27 29  0  0  0  0  0  0  0  0999 V2000
    0.0514    2.0907    3.5393 C   0  0  0  0  0  0  0  0  0  0  0  0
    0.6838    2.7733    2.4937 C   0  0  0  0  0  0  0  0  0  0  0  0
    0.9372    2.1258    1.2896 C   0  0  0  0  0  0  0  0  0  0  0  0
    0.5592    0.7889    1.1194 C   0  0  0  0  0  0  0  0  0  0  0  0
    0.8787    0.0889   -0.1415 C   0  0  0  0  0  0  0  0  0  0  0  0
    2.1342    0.0264   -0.4898 N   0  0  0  0  0  0  0  0  0  0  0  0
    2.4914   -0.7059   -1.5577 C   0  0  0  0  0  0  0  0  0  0  0  0
    1.6008   -1.3908   -2.3456 C   0  0  0  0  0  0  0  0  0  0  0  0
    0.2184   -1.3066   -2.0538 C   0  0  0  0  0  0  0  0  0  0  0  0
   -0.7664   -1.9423   -2.8208 C   0  0  0  0  0  0  0  0  0  0  0  0
   -2.0967   -1.7763   -2.5242 C   0  0  0  0  0  0  0  0  0  0  0  0
   -2.4858   -0.9787   -1.4407 C   0  0  0  0  0  0  0  0  0  0  0  0
   -1.5443   -0.3586   -0.6530 C   0  0  0  0  0  0  0  0  0  0  0  0
   -0.1810   -0.5204   -0.9300 C   0  0  0  0  0  0  0  0  0  0  0  0
   -0.0737    0.1072    2.1628 C   0  0  0  0  0  0  0  0  0  0  0  0
   -0.3191    0.7576    3.3696 C   0  0  0  0  0  0  0  0  0  0  0  0
   -0.1422    2.5963    4.4733 H   0  0  0  0  0  0  0  0  0  0  0  0
    0.9709    3.8042    2.6244 H   0  0  0  0  0  0  0  0  0  0  0  0
    1.4385    2.6451    0.4847 H   0  0  0  0  0  0  0  0  0  0  0  0
    3.5508   -0.7303   -1.7809 H   0  0  0  0  0  0  0  0  0  0  0  0
    1.9401   -1.9817   -3.1907 H   0  0  0  0  0  0  0  0  0  0  0  0
   -0.4587   -2.5613   -3.6554 H   0  0  0  0  0  0  0  0  0  0  0  0
   -2.8556   -2.2686   -3.1310 H   0  0  0  0  0  0  0  0  0  0  0  0
   -3.5358   -0.8388   -1.2282 H   0  0  0  0  0  0  0  0  0  0  0  0
   -1.8342    0.2588    0.1772 H   0  0  0  0  0  0  0  0  0  0  0  0
   -0.3648   -0.9245    2.0333 H   0  0  0  0  0  0  0  0  0  0  0  0
   -0.7970    0.2217    4.1759 H   0  0  0  0  0  0  0  0  0  0  0  0
  1  2  2  0
  2  3  1  0
  3  4  2  0
  4  5  1  0
  5  6  2  0
  6  7  1  0
  7  8  2  0
  8  9  1  0
  9 10  2  0
 10 11  1  0
 11 12  2  0
 12 13  1  0
 13 14  2  0
  4 15  1  0
 15 16  2  0
 16  1  1  0
 14  5  1  0
 14  9  1  0
  1 17  1  0
  2 18  1  0
  3 19  1  0
  7 20  1  0
  8 21  1  0
 10 22  1  0
 11 23  1  0
 12 24  1  0
 13 25  1  0
 15 26  1  0
 16 27  1  0
M  END
$$$$

     RDKit          3D

 27 29  0  0  0  0  0  0  0  0999 V2000
    2.4774   -3.2364   -0.2539 C   0  0  0  0  0  0  0  0  0  0  0  0
    1.8928   -2.8675    0.9598 C   0  0  0  0  0  0  0  0  0  0  0  0
    1.2979   -1.6199    1.1024 C   0  0  0  0  0  0  0  0  0  0  0  0
    1.2982   -0.7198    0.0282 C   0  0  0  0  0  0  0  0  0  0  0  0
    0.6790    0.6123    0.1773 C   0  0  0  0  0  0  0  0  0  0  0  0
    1.4588    1.6183    0.4366 N   0  0  0  0  0  0  0  0  0  0  0  0
    0.9283    2.8501    0.5800 C   0  0  0  0  0  0  0  0  0  0  0  0
   -0.4118    3.1220    0.4766 C   0  0  0  0  0  0  0  0  0  0  0  0
   -1.3067    2.0586    0.2000 C   0  0  0  0  0  0  0  0  0  0  0  0
   -2.6916    2.2304    0.0784 C   0  0  0  0  0  0  0  0  0  0  0  0
   -3.5040    1.1554   -0.2009 C   0  0  0  0  0  0  0  0  0  0  0  0
   -2.9572   -0.1245   -0.3696 C   0  0  0  0  0  0  0  0  0  0  0  0
   -1.6020   -0.3292   -0.2553 C   0  0  0  0  0  0  0  0  0  0  0  0
   -0.7582    0.7486    0.0347 C   0  0  0  0  0  0  0  0  0  0  0  0
    1.8804   -1.0834   -1.1857 C   0  0  0  0  0  0  0  0  0  0  0  0
    2.4698   -2.3427   -1.3243 C   0  0  0  0  0  0  0  0  0  0  0  0
    2.9348   -4.2085   -0.3638 H   0  0  0  0  0  0  0  0  0  0  0  0
    1.8992   -3.5599    1.7891 H   0  0  0  0  0  0  0  0  0  0  0  0
    0.8399   -1.3296    2.0362 H   0  0  0  0  0  0  0  0  0  0  0  0
    1.6291    3.6482    0.7903 H   0  0  0  0  0  0  0  0  0  0  0  0
   -0.7873    4.1339    0.6047 H   0  0  0  0  0  0  0  0  0  0  0  0
   -3.1071    3.2247    0.2029 H   0  0  0  0  0  0  0  0  0  0  0  0
   -4.5799    1.2981   -0.2930 H   0  0  0  0  0  0  0  0  0  0  0  0
   -3.6103   -0.9581   -0.5912 H   0  0  0  0  0  0  0  0  0  0  0  0
   -1.1683   -1.3070   -0.3825 H   0  0  0  0  0  0  0  0  0  0  0  0
    1.8832   -0.3890   -2.0116 H   0  0  0  0  0  0  0  0  0  0  0  0
    2.9156   -2.6253   -2.2657 H   0  0  0  0  0  0  0  0  0  0  0  0
  1  2  2  0
  2  3  1  0
  3  4  2  0
  4  5  1  0
  5  6  2  0
  6  7  1  0
  7  8  2  0
  8  9  1  0
  9 10  2  0
 10 11  1  0
 11 12  2  0
 12 13  1  0
 13 14  2  0
  4 15  1  0
 15 16  2  0
 16  1  1  0
 14  5  1  0
 14  9  1  0
  1 17  1  0
  2 18  1  0
  3 19  1  0
  7 20  1  0
  8 21  1  0
 10 22  1  0
 11 23  1  0
 12 24  1  0
 13 25  1  0
 15 26  1  0
 16 27  1  0
M  END
$$$$

     RDKit          3D

 27 29  0  0  0  0  0  0  0  0999 V2000
   -0.5309   -0.6226    4.0173 C   0  0  0  0  0  0  0  0  0  0  0  0
   -0.9962    0.6205    3.5754 C   0  0  0  0  0  0  0  0  0  0  0  0
   -0.6775    1.0744    2.3005 C   0  0  0  0  0  0  0  0  0  0  0  0
    0.1061    0.2829    1.4538 C   0  0  0  0  0  0  0  0  0  0  0  0
    0.4565    0.7751    0.1069 C   0  0  0  0  0  0  0  0  0  0  0  0
    1.1661    1.8655    0.0405 N   0  0  0  0  0  0  0  0  0  0  0  0
    1.5736    2.3160   -1.1605 C   0  0  0  0  0  0  0  0  0  0  0  0
    1.2780    1.6974   -2.3495 C   0  0  0  0  0  0  0  0  0  0  0  0
    0.4807    0.5280   -2.3354 C   0  0  0  0  0  0  0  0  0  0  0  0
    0.1192   -0.1635   -3.5005 C   0  0  0  0  0  0  0  0  0  0  0  0
   -0.6807   -1.2790   -3.4289 C   0  0  0  0  0  0  0  0  0  0  0  0
   -1.1495   -1.7354   -2.1902 C   0  0  0  0  0  0  0  0  0  0  0  0
   -0.8084   -1.0844   -1.0262 C   0  0  0  0  0  0  0  0  0  0  0  0
    0.0238    0.0437   -1.0714 C   0  0  0  0  0  0  0  0  0  0  0  0
    0.5812   -0.9550    1.8963 C   0  0  0  0  0  0  0  0  0  0  0  0
    0.2626   -1.4022    3.1763 C   0  0  0  0  0  0  0  0  0  0  0  0
   -0.7791   -0.9704    5.0083 H   0  0  0  0  0  0  0  0  0  0  0  0
   -1.6086    1.2230    4.2280 H   0  0  0  0  0  0  0  0  0  0  0  0
   -1.0254    2.0404    1.9599 H   0  0  0  0  0  0  0  0  0  0  0  0
    2.1703    3.2187   -1.1470 H   0  0  0  0  0  0  0  0  0  0  0  0
    1.6339    2.0987   -3.2943 H   0  0  0  0  0  0  0  0  0  0  0  0
    0.4846    0.1930   -4.4553 H   0  0  0  0  0  0  0  0  0  0  0  0
   -0.9541   -1.8104   -4.3375 H   0  0  0  0  0  0  0  0  0  0  0  0
   -1.7865   -2.6079   -2.1524 H   0  0  0  0  0  0  0  0  0  0  0  0
   -1.1653   -1.4274   -0.0743 H   0  0  0  0  0  0  0  0  0  0  0  0
    1.1953   -1.5606    1.2443 H   0  0  0  0  0  0  0  0  0  0  0  0
    0.6304   -2.3584    3.5159 H   0  0  0  0  0  0  0  0  0  0  0  0
  1  2  2  0
  2  3  1  0
  3  4  2  0
  4  5  1  0
  5  6  2  0
  6  7  1  0
  7  8  2  0
  8  9  1  0
  9 10  2  0
 10 11  1  0
 11 12  2  0
 12 13  1  0
 13 14  2  0
  4 15  1  0
 15 16  2  0
 16  1  1  0
 14  5  1  0
 14  9  1  0
  1 17  1  0
  2 18  1  0
  3 19  1  0
  7 20  1  0
  8 21  1  0
 10 22  1  0
 11 23  1  0
 12 24  1  0
 13 25  1  0
 15 26  1  0
 16 27  1  0
M  END
$$$$

     RDKit          3D

 27 29  0  0  0  0  0  0  0  0999 V2000
    3.7361   -1.2839   -1.0353 C   0  0  0  0  0  0  0  0  0  0  0  0
    3.3330   -0.1176   -1.6925 C   0  0  0  0  0  0  0  0  0  0  0  0
    2.2138    0.5807   -1.2530 C   0  0  0  0  0  0  0  0  0  0  0  0
    1.4787    0.1073   -0.1632 C   0  0  0  0  0  0  0  0  0  0  0  0
    0.2780    0.8378    0.2921 C   0  0  0  0  0  0  0  0  0  0  0  0
    0.4416    2.0337    0.7801 N   0  0  0  0  0  0  0  0  0  0  0  0
   -0.6193    2.7020    1.2721 C   0  0  0  0  0  0  0  0  0  0  0  0
   -1.8969    2.2049    1.2902 C   0  0  0  0  0  0  0  0  0  0  0  0
   -2.1370    0.9213    0.7428 C   0  0  0  0  0  0  0  0  0  0  0  0
   -3.4069    0.3285    0.7096 C   0  0  0  0  0  0  0  0  0  0  0  0
   -3.5875   -0.8994    0.1169 C   0  0  0  0  0  0  0  0  0  0  0  0
   -2.5019   -1.5740   -0.4587 C   0  0  0  0  0  0  0  0  0  0  0  0
   -1.2401   -1.0290   -0.4249 C   0  0  0  0  0  0  0  0  0  0  0  0
   -1.0263    0.2099    0.1929 C   0  0  0  0  0  0  0  0  0  0  0  0
    1.8843   -1.0565    0.4997 C   0  0  0  0  0  0  0  0  0  0  0  0
    3.0120   -1.7450    0.0635 C   0  0  0  0  0  0  0  0  0  0  0  0
    4.6069   -1.8201   -1.3800 H   0  0  0  0  0  0  0  0  0  0  0  0
    3.8953    0.2392   -2.5424 H   0  0  0  0  0  0  0  0  0  0  0  0
    1.9098    1.4946   -1.7441 H   0  0  0  0  0  0  0  0  0  0  0  0
   -0.4140    3.6908    1.6615 H   0  0  0  0  0  0  0  0  0  0  0  0
   -2.7175    2.7808    1.7130 H   0  0  0  0  0  0  0  0  0  0  0  0
   -4.2423    0.8600    1.1542 H   0  0  0  0  0  0  0  0  0  0  0  0
   -4.5789   -1.3472    0.0842 H   0  0  0  0  0  0  0  0  0  0  0  0
   -2.6597   -2.5315   -0.9348 H   0  0  0  0  0  0  0  0  0  0  0  0
   -0.4041   -1.5339   -0.8719 H   0  0  0  0  0  0  0  0  0  0  0  0
    1.3178   -1.4137    1.3495 H   0  0  0  0  0  0  0  0  0  0  0  0
    3.3250   -2.6398    0.5785 H   0  0  0  0  0  0  0  0  0  0  0  0
  1  2  2  0
  2  3  1  0
  3  4  2  0
  4  5  1  0
  5  6  2  0
  6  7  1  0
  7  8  2  0
  8  9  1  0
  9 10  2  0
 10 11  1  0
 11 12  2  0
 12 13  1  0
 13 14  2  0
  4 15  1  0
 15 16  2  0
 16  1  1  0
 14  5  1  0
 14  9  1  0
  1 17  1  0
  2 18  1  0
  3 19  1  0
  7 20  1  0
  8 21  1  0
 10 22  1  0
 11 23  1  0
 12 24  1  0
 13 25  1  0
 15 26  1  0
 16 27  1  0
M  END
$$$$

     RDKit          3D

 27 29  0  0  0  0  0  0  0  0999 V2000
    2.7353    0.4731   -3.0005 C   0  0  0  0  0  0  0  0  0  0  0  0
    1.7563   -0.4961   -3.2451 C   0  0  0  0  0  0  0  0  0  0  0  0
    0.9387   -0.9411   -2.2136 C   0  0  0  0  0  0  0  0  0  0  0  0
    1.0880   -0.4086   -0.9279 C   0  0  0  0  0  0  0  0  0  0  0  0
    0.2159   -0.8809    0.1666 C   0  0  0  0  0  0  0  0  0  0  0  0
    0.3663   -2.1071    0.5707 N   0  0  0  0  0  0  0  0  0  0  0  0
   -0.3799   -2.5650    1.5958 C   0  0  0  0  0  0  0  0  0  0  0  0
   -1.3260   -1.8167    2.2485 C   0  0  0  0  0  0  0  0  0  0  0  0
   -1.5520   -0.4838    1.8274 C   0  0  0  0  0  0  0  0  0  0  0  0
   -2.5050    0.3569    2.4186 C   0  0  0  0  0  0  0  0  0  0  0  0
   -2.6797    1.6434    1.9630 C   0  0  0  0  0  0  0  0  0  0  0  0
   -1.9033    2.1314    0.9034 C   0  0  0  0  0  0  0  0  0  0  0  0
   -0.9585    1.3342    0.3011 C   0  0  0  0  0  0  0  0  0  0  0  0
   -0.7617    0.0209    0.7484 C   0  0  0  0  0  0  0  0  0  0  0  0
    2.0710    0.5527   -0.6781 C   0  0  0  0  0  0  0  0  0  0  0  0
    2.8935    0.9883   -1.7148 C   0  0  0  0  0  0  0  0  0  0  0  0
    3.3668    0.8169   -3.8055 H   0  0  0  0  0  0  0  0  0  0  0  0
    1.6390   -0.8914   -4.2428 H   0  0  0  0  0  0  0  0  0  0  0  0
    0.1866   -1.6981   -2.3888 H   0  0  0  0  0  0  0  0  0  0  0  0
   -0.1893   -3.5864    1.8972 H   0  0  0  0  0  0  0  0  0  0  0  0
   -1.9085   -2.2378    3.0638 H   0  0  0  0  0  0  0  0  0  0  0  0
   -3.0988   -0.0285    3.2403 H   0  0  0  0  0  0  0  0  0  0  0  0
   -3.4208    2.2892    2.4303 H   0  0  0  0  0  0  0  0  0  0  0  0
   -2.0533    3.1436    0.5537 H   0  0  0  0  0  0  0  0  0  0  0  0
   -0.3569    1.6994   -0.5104 H   0  0  0  0  0  0  0  0  0  0  0  0
    2.1873    0.9580    0.3187 H   0  0  0  0  0  0  0  0  0  0  0  0
    3.6489    1.7336   -1.5200 H   0  0  0  0  0  0  0  0  0  0  0  0
  1  2  2  0
  2  3  1  0
  3  4  2  0
  4  5  1  0
  5  6  2  0
  6  7  1  0
  7  8  2  0
  8  9  1  0
  9 10  2  0
 10 11  1  0
 11 12  2  0
 12 13  1  0
 13 14  2  0
  4 15  1  0
 15 16  2  0
 16  1  1  0
 14  5  1  0
 14  9  1  0
  1 17  1  0
  2 18  1  0
  3 19  1  0
  7 20  1  0
  8 21  1  0
 10 22  1  0
 11 23  1  0
 12 24  1  0
 13 25  1  0
 15 26  1  0
 16 27  1  0
M  END
$$$$
