
     RDKit          3D

 34 36  0  0  0  0  0  0  0  0999 V2000
   -3.1304    5.6695   -1.1080 C   0  0  0  0  0  0  0  0  0  0  0  0
   -2.4621    4.3721   -0.7875 C   0  0  0  0  0  0  0  0  0  0  0  0
   -3.0613    3.3889   -0.0013 C   0  0  0  0  0  0  0  0  0  0  0  0
   -2.3992    2.2011    0.2343 C   0  0  0  0  0  0  0  0  0  0  0  0
   -1.1417    1.9904   -0.3135 C   0  0  0  0  0  0  0  0  0  0  0  0
   -0.4041    0.7230   -0.1119 C   0  0  0  0  0  0  0  0  0  0  0  0
    0.9896    0.7003   -0.1564 C   0  0  0  0  0  0  0  0  0  0  0  0
    1.6820   -0.4697    0.0411 C   0  0  0  0  0  0  0  0  0  0  0  0
    1.0120   -1.6757    0.2773 C   0  0  0  0  0  0  0  0  0  0  0  0
    1.7627   -2.9466    0.4827 C   0  0  0  0  0  0  0  0  0  0  0  0
    1.2377   -4.1647    0.0481 C   0  0  0  0  0  0  0  0  0  0  0  0
    1.9290   -5.3446    0.2388 C   0  0  0  0  0  0  0  0  0  0  0  0
    3.1696   -5.3392    0.8666 C   0  0  0  0  0  0  0  0  0  0  0  0
    3.7026   -4.1357    1.3020 C   0  0  0  0  0  0  0  0  0  0  0  0
    3.0061   -2.9513    1.1095 C   0  0  0  0  0  0  0  0  0  0  0  0
   -0.3860   -1.6503    0.3076 C   0  0  0  0  0  0  0  0  0  0  0  0
   -1.0785   -0.4809    0.1183 C   0  0  0  0  0  0  0  0  0  0  0  0
   -0.5400    2.9363   -1.0487 N   0  0  0  0  0  0  0  0  0  0  0  0
   -1.1868    4.0743   -1.2788 C   0  0  0  0  0  0  0  0  0  0  0  0
   -3.3760    5.7300   -2.1673 H   0  0  0  0  0  0  0  0  0  0  0  0
   -2.4824    6.5170   -0.8884 H   0  0  0  0  0  0  0  0  0  0  0  0
   -4.0522    5.7994   -0.5412 H   0  0  0  0  0  0  0  0  0  0  0  0
   -4.0330    3.5599    0.4223 H   0  0  0  0  0  0  0  0  0  0  0  0
   -2.8606    1.4457    0.8568 H   0  0  0  0  0  0  0  0  0  0  0  0
    1.5193    1.6200   -0.3497 H   0  0  0  0  0  0  0  0  0  0  0  0
    2.7588   -0.4655    0.0017 H   0  0  0  0  0  0  0  0  0  0  0  0
    0.2767   -4.1826   -0.4535 H   0  0  0  0  0  0  0  0  0  0  0  0
    1.5005   -6.2711   -0.1106 H   0  0  0  0  0  0  0  0  0  0  0  0
    3.7118   -6.2630    1.0120 H   0  0  0  0  0  0  0  0  0  0  0  0
    4.6601   -4.1095    1.7984 H   0  0  0  0  0  0  0  0  0  0  0  0
    3.4387   -2.0234    1.4596 H   0  0  0  0  0  0  0  0  0  0  0  0
   -0.9343   -2.5621    0.4958 H   0  0  0  0  0  0  0  0  0  0  0  0
   -2.1564   -0.4940    0.1314 H   0  0  0  0  0  0  0  0  0  0  0  0
   -0.6719    4.8017   -1.8875 H   0  0  0  0  0  0  0  0  0  0  0  0
  1  2  1  0
  2  3  2  0
  3  4  1  0
  4  5  2  0
  5  6  1  0
  6  7  2  0
  7  8  1  0
  8  9  2  0
  9 10  1  0
 10 11  2  0
 11 12  1  0
 12 13  2  0
 13 14  1  0
 14 15  2  0
  9 16  1  0
 16 17  2  0
  5 18  1  0
 18 19  2  0
 19  2  1  0
 17  6  1  0
 15 10  1  0
  1 20  1  0
  1 21  1  0
  1 22  1  0
  3 23  1  0
  4 24  1  0
  7 25  1  0
  8 26  1  0
 11 27  1  0
 12 28  1  0
 13 29  1  0
 14 30  1  0
 15 31  1  0
 16 32  1  0
 17 33  1  0
 19 34  1  0
M  END
$$$$

     RDKit          3D

 34 36  0  0  0  0  0  0  0  0999 V2000
    3.1786   -5.6421    1.1018 C   0  0  0  0  0  0  0  0  0  0  0  0
    2.4078   -4.3956    0.8097 C   0  0  0  0  0  0  0  0  0  0  0  0
    1.4558   -4.3205   -0.2076 C   0  0  0  0  0  0  0  0  0  0  0  0
    0.7926   -3.1322   -0.4377 C   0  0  0  0  0  0  0  0  0  0  0  0
    1.0788   -2.0187    0.3409 C   0  0  0  0  0  0  0  0  0  0  0  0
    0.4044   -0.7196    0.1241 C   0  0  0  0  0  0  0  0  0  0  0  0
    0.2464    0.1806    1.1779 C   0  0  0  0  0  0  0  0  0  0  0  0
   -0.3984    1.3788    0.9920 C   0  0  0  0  0  0  0  0  0  0  0  0
   -0.9001    1.7408   -0.2625 C   0  0  0  0  0  0  0  0  0  0  0  0
   -1.5970    3.0405   -0.4695 C   0  0  0  0  0  0  0  0  0  0  0  0
   -1.4112    3.7719   -1.6438 C   0  0  0  0  0  0  0  0  0  0  0  0
   -2.0489    4.9820   -1.8341 C   0  0  0  0  0  0  0  0  0  0  0  0
   -2.8982    5.4904   -0.8563 C   0  0  0  0  0  0  0  0  0  0  0  0
   -3.0959    4.7691    0.3120 C   0  0  0  0  0  0  0  0  0  0  0  0
   -2.4487    3.5567    0.5036 C   0  0  0  0  0  0  0  0  0  0  0  0
   -0.7248    0.8437   -1.3206 C   0  0  0  0  0  0  0  0  0  0  0  0
   -0.0885   -0.3582   -1.1343 C   0  0  0  0  0  0  0  0  0  0  0  0
    1.9782   -2.0799    1.3339 N   0  0  0  0  0  0  0  0  0  0  0  0
    2.6168   -3.2270    1.5476 C   0  0  0  0  0  0  0  0  0  0  0  0
    4.2336   -5.5185    0.8609 H   0  0  0  0  0  0  0  0  0  0  0  0
    2.8009   -6.4900    0.5309 H   0  0  0  0  0  0  0  0  0  0  0  0
    3.1286   -5.9011    2.1601 H   0  0  0  0  0  0  0  0  0  0  0  0
    1.2414   -5.1871   -0.8049 H   0  0  0  0  0  0  0  0  0  0  0  0
    0.0395   -3.0782   -1.2120 H   0  0  0  0  0  0  0  0  0  0  0  0
    0.6412   -0.0794    2.1470 H   0  0  0  0  0  0  0  0  0  0  0  0
   -0.5163    2.0556    1.8238 H   0  0  0  0  0  0  0  0  0  0  0  0
   -0.7455    3.3870   -2.4091 H   0  0  0  0  0  0  0  0  0  0  0  0
   -1.8777    5.5338   -2.7447 H   0  0  0  0  0  0  0  0  0  0  0  0
   -3.3975    6.4378   -1.0060 H   0  0  0  0  0  0  0  0  0  0  0  0
   -3.7587    5.1373    1.0792 H   0  0  0  0  0  0  0  0  0  0  0  0
   -2.6188    3.0023    1.4184 H   0  0  0  0  0  0  0  0  0  0  0  0
   -1.1053    1.0914   -2.2992 H   0  0  0  0  0  0  0  0  0  0  0  0
    0.0448   -1.0242   -1.9700 H   0  0  0  0  0  0  0  0  0  0  0  0
    3.3418   -3.2271    2.3482 H   0  0  0  0  0  0  0  0  0  0  0  0
  1  2  1  0
  2  3  2  0
  3  4  1  0
  4  5  2  0
  5  6  1  0
  6  7  2  0
  7  8  1  0
  8  9  2  0
  9 10  1  0
 10 11  2  0
 11 12  1  0
 12 13  2  0
 13 14  1  0
 14 15  2  0
  9 16  1  0
 16 17  2  0
  5 18  1  0
 18 19  2  0
 19  2  1  0
 17  6  1  0
 15 10  1  0
  1 20  1  0
  1 21  1  0
  1 22  1  0
  3 23  1  0
  4 24  1  0
  7 25  1  0
  8 26  1  0
 11 27  1  0
 12 28  1  0
 13 29  1  0
 14 30  1  0
 15 31  1  0
 16 32  1  0
 17 33  1  0
 19 34  1  0
M  END
$$$$

     RDKit          3D

 34 36  0  0  0  0  0  0  0  0999 V2000
   -5.2433    3.0151    2.5677 C   0  0  0  0  0  0  0  0  0  0  0  0
   -4.0378    2.3145    2.0271 C   0  0  0  0  0  0  0  0  0  0  0  0
   -2.9180    2.0541    2.8217 C   0  0  0  0  0  0  0  0  0  0  0  0
   -1.8301    1.4065    2.2783 C   0  0  0  0  0  0  0  0  0  0  0  0
   -1.8498    1.0178    0.9453 C   0  0  0  0  0  0  0  0  0  0  0  0
   -0.7026    0.3229    0.3198 C   0  0  0  0  0  0  0  0  0  0  0  0
    0.1358   -0.5064    1.0635 C   0  0  0  0  0  0  0  0  0  0  0  0
    1.2124   -1.1240    0.4831 C   0  0  0  0  0  0  0  0  0  0  0  0
    1.5102   -0.9376   -0.8701 C   0  0  0  0  0  0  0  0  0  0  0  0
    2.7034   -1.5775   -1.4877 C   0  0  0  0  0  0  0  0  0  0  0  0
    3.4701   -0.8979   -2.4343 C   0  0  0  0  0  0  0  0  0  0  0  0
    4.5868   -1.4853   -2.9955 C   0  0  0  0  0  0  0  0  0  0  0  0
    4.9648   -2.7737   -2.6287 C   0  0  0  0  0  0  0  0  0  0  0  0
    4.2060   -3.4610   -1.6937 C   0  0  0  0  0  0  0  0  0  0  0  0
    3.0867   -2.8656   -1.1277 C   0  0  0  0  0  0  0  0  0  0  0  0
    0.6563   -0.1235   -1.6216 C   0  0  0  0  0  0  0  0  0  0  0  0
   -0.4334    0.4852   -1.0431 C   0  0  0  0  0  0  0  0  0  0  0  0
   -2.9091    1.2661    0.1688 N   0  0  0  0  0  0  0  0  0  0  0  0
   -3.9641    1.8833    0.7024 C   0  0  0  0  0  0  0  0  0  0  0  0
   -5.7199    2.4300    3.3524 H   0  0  0  0  0  0  0  0  0  0  0  0
   -4.9730    3.9705    3.0150 H   0  0  0  0  0  0  0  0  0  0  0  0
   -5.9886    3.2012    1.7948 H   0  0  0  0  0  0  0  0  0  0  0  0
   -2.9123    2.3640    3.8527 H   0  0  0  0  0  0  0  0  0  0  0  0
   -0.9578    1.2180    2.8907 H   0  0  0  0  0  0  0  0  0  0  0  0
   -0.0751   -0.6675    2.1097 H   0  0  0  0  0  0  0  0  0  0  0  0
    1.8466   -1.7564    1.0859 H   0  0  0  0  0  0  0  0  0  0  0  0
    3.1864    0.1073   -2.7267 H   0  0  0  0  0  0  0  0  0  0  0  0
    5.1694   -0.9342   -3.7171 H   0  0  0  0  0  0  0  0  0  0  0  0
    5.8411   -3.2320   -3.0683 H   0  0  0  0  0  0  0  0  0  0  0  0
    4.4745   -4.4611   -1.3961 H   0  0  0  0  0  0  0  0  0  0  0  0
    2.5053   -3.4169   -0.3969 H   0  0  0  0  0  0  0  0  0  0  0  0
    0.8483    0.0202   -2.6754 H   0  0  0  0  0  0  0  0  0  0  0  0
   -1.0900    1.0994   -1.6392 H   0  0  0  0  0  0  0  0  0  0  0  0
   -4.7994    2.0444    0.0432 H   0  0  0  0  0  0  0  0  0  0  0  0
  1  2  1  0
  2  3  2  0
  3  4  1  0
  4  5  2  0
  5  6  1  0
  6  7  2  0
  7  8  1  0
  8  9  2  0
  9 10  1  0
 10 11  2  0
 11 12  1  0
 12 13  2  0
 13 14  1  0
 14 15  2  0
  9 16  1  0
 16 17  2  0
  5 18  1  0
 18 19  2  0
 19  2  1  0
 17  6  1  0
 15 10  1  0
  1 20  1  0
  1 21  1  0
  1 22  1  0
  3 23  1  0
  4 24  1  0
  7 25  1  0
  8 26  1  0
 11 27  1  0
 12 28  1  0
 13 29  1  0
 14 30  1  0
 15 31  1  0
 16 32  1  0
 17 33  1  0
 19 34  1  0
M  END
$$$$

     RDKit          3D

 34 36  0  0  0  0  0  0  0  0999 V2000
   -0.0657   -4.5772   -4.7169 C   0  0  0  0  0  0  0  0  0  0  0  0
   -0.1129   -3.5446   -3.6383 C   0  0  0  0  0  0  0  0  0  0  0  0
   -1.3102   -3.0784   -3.0922 C   0  0  0  0  0  0  0  0  0  0  0  0
   -1.2827   -2.1292   -2.0899 C   0  0  0  0  0  0  0  0  0  0  0  0
   -0.0661   -1.6451   -1.6278 C   0  0  0  0  0  0  0  0  0  0  0  0
    0.0098   -0.6256   -0.5560 C   0  0  0  0  0  0  0  0  0  0  0  0
    1.0961    0.2459   -0.4800 C   0  0  0  0  0  0  0  0  0  0  0  0
    1.1553    1.2178    0.4887 C   0  0  0  0  0  0  0  0  0  0  0  0
    0.1354    1.3554    1.4363 C   0  0  0  0  0  0  0  0  0  0  0  0
    0.1823    2.4226    2.4725 C   0  0  0  0  0  0  0  0  0  0  0  0
   -0.9853    3.0723    2.8790 C   0  0  0  0  0  0  0  0  0  0  0  0
   -0.9485    4.0737    3.8285 C   0  0  0  0  0  0  0  0  0  0  0  0
    0.2604    4.4472    4.4086 C   0  0  0  0  0  0  0  0  0  0  0  0
    1.4269    3.8057    4.0187 C   0  0  0  0  0  0  0  0  0  0  0  0
    1.3871    2.8041    3.0570 C   0  0  0  0  0  0  0  0  0  0  0  0
   -0.9375    0.4614    1.3743 C   0  0  0  0  0  0  0  0  0  0  0  0
   -1.0009   -0.5056    0.4045 C   0  0  0  0  0  0  0  0  0  0  0  0
    1.0911   -2.0769   -2.1485 N   0  0  0  0  0  0  0  0  0  0  0  0
    1.0591   -2.9939   -3.1106 C   0  0  0  0  0  0  0  0  0  0  0  0
    0.3286   -5.5193   -4.3364 H   0  0  0  0  0  0  0  0  0  0  0  0
   -1.0549   -4.7730   -5.1314 H   0  0  0  0  0  0  0  0  0  0  0  0
    0.5838   -4.2684   -5.5369 H   0  0  0  0  0  0  0  0  0  0  0  0
   -2.2456   -3.4553   -3.4608 H   0  0  0  0  0  0  0  0  0  0  0  0
   -2.2091   -1.7536   -1.6811 H   0  0  0  0  0  0  0  0  0  0  0  0
    1.8938    0.1494   -1.2005 H   0  0  0  0  0  0  0  0  0  0  0  0
    1.9949    1.8976    0.5147 H   0  0  0  0  0  0  0  0  0  0  0  0
   -1.9323    2.7915    2.4275 H   0  0  0  0  0  0  0  0  0  0  0  0
   -1.8648    4.5684    4.1125 H   0  0  0  0  0  0  0  0  0  0  0  0
    0.2878    5.2312    5.1525 H   0  0  0  0  0  0  0  0  0  0  0  0
    2.3725    4.0736    4.4632 H   0  0  0  0  0  0  0  0  0  0  0  0
    2.3052    2.3095    2.7697 H   0  0  0  0  0  0  0  0  0  0  0  0
   -1.7304    0.5256    2.1053 H   0  0  0  0  0  0  0  0  0  0  0  0
   -1.8368   -1.1875    0.3896 H   0  0  0  0  0  0  0  0  0  0  0  0
    2.0137   -3.3194   -3.4958 H   0  0  0  0  0  0  0  0  0  0  0  0
  1  2  1  0
  2  3  2  0
  3  4  1  0
  4  5  2  0
  5  6  1  0
  6  7  2  0
  7  8  1  0
  8  9  2  0
  9 10  1  0
 10 11  2  0
 11 12  1  0
 12 13  2  0
 13 14  1  0
 14 15  2  0
  9 16  1  0
 16 17  2  0
  5 18  1  0
 18 19  2  0
 19  2  1  0
 17  6  1  0
 15 10  1  0
  1 20  1  0
  1 21  1  0
  1 22  1  0
  3 23  1  0
  4 24  1  0
  7 25  1  0
  8 26  1  0
 11 27  1  0
 12 28  1  0
 13 29  1  0
 14 30  1  0
 15 31  1  0
 16 32  1  0
 17 33  1  0
 19 34  1  0
M  END
$$$$

     RDKit          3D

 34 36  0  0  0  0  0  0  0  0999 V2000
   -3.8967    0.8845    5.2225 C   0  0  0  0  0  0  0  0  0  0  0  0
   -3.0097    0.5975    4.0538 C   0  0  0  0  0  0  0  0  0  0  0  0
   -3.0311   -0.6221    3.3792 C   0  0  0  0  0  0  0  0  0  0  0  0
   -2.2071   -0.8187    2.2900 C   0  0  0  0  0  0  0  0  0  0  0  0
   -1.3588    0.1961    1.8665 C   0  0  0  0  0  0  0  0  0  0  0  0
   -0.4657    0.0524    0.6906 C   0  0  0  0  0  0  0  0  0  0  0  0
    0.3302    1.1237    0.2740 C   0  0  0  0  0  0  0  0  0  0  0  0
    1.1515    1.0124   -0.8205 C   0  0  0  0  0  0  0  0  0  0  0  0
    1.2159   -0.1766   -1.5561 C   0  0  0  0  0  0  0  0  0  0  0  0
    2.0943   -0.3000   -2.7517 C   0  0  0  0  0  0  0  0  0  0  0  0
    1.6908   -1.0447   -3.8633 C   0  0  0  0  0  0  0  0  0  0  0  0
    2.4966   -1.1535   -4.9772 C   0  0  0  0  0  0  0  0  0  0  0  0
    3.7365   -0.5232   -5.0125 C   0  0  0  0  0  0  0  0  0  0  0  0
    4.1533    0.2112   -3.9116 C   0  0  0  0  0  0  0  0  0  0  0  0
    3.3381    0.3222   -2.7932 C   0  0  0  0  0  0  0  0  0  0  0  0
    0.4254   -1.2477   -1.1346 C   0  0  0  0  0  0  0  0  0  0  0  0
   -0.3923   -1.1397   -0.0385 C   0  0  0  0  0  0  0  0  0  0  0  0
   -1.3221    1.3727    2.5153 N   0  0  0  0  0  0  0  0  0  0  0  0
   -2.1192    1.5542    3.5628 C   0  0  0  0  0  0  0  0  0  0  0  0
   -4.6487    1.6284    4.9677 H   0  0  0  0  0  0  0  0  0  0  0  0
   -4.4170   -0.0115    5.5614 H   0  0  0  0  0  0  0  0  0  0  0  0
   -3.3319    1.2804    6.0666 H   0  0  0  0  0  0  0  0  0  0  0  0
   -3.6870   -1.4053    3.7088 H   0  0  0  0  0  0  0  0  0  0  0  0
   -2.2420   -1.7665    1.7800 H   0  0  0  0  0  0  0  0  0  0  0  0
    0.2908    2.0486    0.8245 H   0  0  0  0  0  0  0  0  0  0  0  0
    1.7500    1.8571   -1.1282 H   0  0  0  0  0  0  0  0  0  0  0  0
    0.7245   -1.5394   -3.8483 H   0  0  0  0  0  0  0  0  0  0  0  0
    2.1534   -1.7226   -5.8271 H   0  0  0  0  0  0  0  0  0  0  0  0
    4.3643   -0.6063   -5.8869 H   0  0  0  0  0  0  0  0  0  0  0  0
    5.1146    0.6975   -3.9093 H   0  0  0  0  0  0  0  0  0  0  0  0
    3.6782    0.8968   -1.9390 H   0  0  0  0  0  0  0  0  0  0  0  0
    0.4603   -2.1836   -1.6719 H   0  0  0  0  0  0  0  0  0  0  0  0
   -0.9814   -1.9890    0.2569 H   0  0  0  0  0  0  0  0  0  0  0  0
   -2.0578    2.5148    4.0491 H   0  0  0  0  0  0  0  0  0  0  0  0
  1  2  1  0
  2  3  2  0
  3  4  1  0
  4  5  2  0
  5  6  1  0
  6  7  2  0
  7  8  1  0
  8  9  2  0
  9 10  1  0
 10 11  2  0
 11 12  1  0
 12 13  2  0
 13 14  1  0
 14 15  2  0
  9 16  1  0
 16 17  2  0
  5 18  1  0
 18 19  2  0
 19  2  1  0
 17  6  1  0
 15 10  1  0
  1 20  1  0
  1 21  1  0
  1 22  1  0
  3 23  1  0
  4 24  1  0
  7 25  1  0
  8 26  1  0
 11 27  1  0
 12 28  1  0
 13 29  1  0
 14 30  1  0
 15 31  1  0
 16 32  1  0
 17 33  1  0
 19 34  1  0
M  END
$$$$

     RDKit          3D

 34 36  0  0  0  0  0  0  0  0999 V2000
   -0.0410   -6.2370    2.0748 C   0  0  0  0  0  0  0  0  0  0  0  0
   -0.0046   -4.8343    1.5602 C   0  0  0  0  0  0  0  0  0  0  0  0
    0.4513   -4.5353    0.2714 C   0  0  0  0  0  0  0  0  0  0  0  0
    0.4557   -3.2272   -0.1646 C   0  0  0  0  0  0  0  0  0  0  0  0
    0.0061   -2.2138    0.6730 C   0  0  0  0  0  0  0  0  0  0  0  0
   -0.0214   -0.7960    0.2466 C   0  0  0  0  0  0  0  0  0  0  0  0
   -0.1385   -0.4379   -1.0965 C   0  0  0  0  0  0  0  0  0  0  0  0
   -0.1415    0.8780   -1.4789 C   0  0  0  0  0  0  0  0  0  0  0  0
   -0.0335    1.9044   -0.5376 C   0  0  0  0  0  0  0  0  0  0  0  0
   -0.0295    3.3318   -0.9596 C   0  0  0  0  0  0  0  0  0  0  0  0
   -0.6734    4.3063   -0.1961 C   0  0  0  0  0  0  0  0  0  0  0  0
   -0.6783    5.6308   -0.5908 C   0  0  0  0  0  0  0  0  0  0  0  0
   -0.0286    6.0197   -1.7583 C   0  0  0  0  0  0  0  0  0  0  0  0
    0.6199    5.0599   -2.5237 C   0  0  0  0  0  0  0  0  0  0  0  0
    0.6148    3.7300   -2.1297 C   0  0  0  0  0  0  0  0  0  0  0  0
    0.0687    1.5460    0.8113 C   0  0  0  0  0  0  0  0  0  0  0  0
    0.0663    0.2254    1.1978 C   0  0  0  0  0  0  0  0  0  0  0  0
   -0.4152   -2.4816    1.9159 N   0  0  0  0  0  0  0  0  0  0  0  0
   -0.4249   -3.7487    2.3299 C   0  0  0  0  0  0  0  0  0  0  0  0
   -0.3292   -6.2818    3.1252 H   0  0  0  0  0  0  0  0  0  0  0  0
   -0.7482   -6.8419    1.5103 H   0  0  0  0  0  0  0  0  0  0  0  0
    0.9335   -6.7140    1.9725 H   0  0  0  0  0  0  0  0  0  0  0  0
    0.7981   -5.3298   -0.3662 H   0  0  0  0  0  0  0  0  0  0  0  0
    0.8262   -2.9972   -1.1528 H   0  0  0  0  0  0  0  0  0  0  0  0
   -0.2467   -1.2106   -1.8432 H   0  0  0  0  0  0  0  0  0  0  0  0
   -0.2426    1.1258   -2.5242 H   0  0  0  0  0  0  0  0  0  0  0  0
   -1.1851    4.0125    0.7142 H   0  0  0  0  0  0  0  0  0  0  0  0
   -1.1981    6.3579    0.0118 H   0  0  0  0  0  0  0  0  0  0  0  0
   -0.0302    7.0557   -2.0637 H   0  0  0  0  0  0  0  0  0  0  0  0
    1.1388    5.3410   -3.4273 H   0  0  0  0  0  0  0  0  0  0  0  0
    1.1271    2.9935   -2.7371 H   0  0  0  0  0  0  0  0  0  0  0  0
    0.1567    2.3172    1.5624 H   0  0  0  0  0  0  0  0  0  0  0  0
    0.1325   -0.0330    2.2430 H   0  0  0  0  0  0  0  0  0  0  0  0
   -0.7854   -3.9159    3.3303 H   0  0  0  0  0  0  0  0  0  0  0  0
  1  2  1  0
  2  3  2  0
  3  4  1  0
  4  5  2  0
  5  6  1  0
  6  7  2  0
  7  8  1  0
  8  9  2  0
  9 10  1  0
 10 11  2  0
 11 12  1  0
 12 13  2  0
 13 14  1  0
 14 15  2  0
  9 16  1  0
 16 17  2  0
  5 18  1  0
 18 19  2  0
 19  2  1  0
 17  6  1  0
 15 10  1  0
  1 20  1  0
  1 21  1  0
  1 22  1  0
  3 23  1  0
  4 24  1  0
  7 25  1  0
  8 26  1  0
 11 27  1  0
 12 28  1  0
 13 29  1  0
 14 30  1  0
 15 31  1  0
 16 32  1  0
 17 33  1  0
 19 34  1  0
M  END
$$$$

     RDKit          3D

 34 36  0  0  0  0  0  0  0  0999 V2000
    2.8428    5.1806   -2.8767 C   0  0  0  0  0  0  0  0  0  0  0  0
    2.2589    3.9653   -2.2316 C   0  0  0  0  0  0  0  0  0  0  0  0
    3.0473    2.9421   -1.7039 C   0  0  0  0  0  0  0  0  0  0  0  0
    2.4456    1.8572   -1.0972 C   0  0  0  0  0  0  0  0  0  0  0  0
    1.0607    1.7871   -1.0196 C   0  0  0  0  0  0  0  0  0  0  0  0
    0.3723    0.6485   -0.3720 C   0  0  0  0  0  0  0  0  0  0  0  0
   -0.9062    0.2664   -0.7781 C   0  0  0  0  0  0  0  0  0  0  0  0
   -1.5469   -0.7954   -0.1873 C   0  0  0  0  0  0  0  0  0  0  0  0
   -0.9413   -1.5203    0.8446 C   0  0  0  0  0  0  0  0  0  0  0  0
   -1.6371   -2.6649    1.4938 C   0  0  0  0  0  0  0  0  0  0  0  0
   -0.9272   -3.7972    1.9020 C   0  0  0  0  0  0  0  0  0  0  0  0
   -1.5686   -4.8610    2.5032 C   0  0  0  0  0  0  0  0  0  0  0  0
   -2.9421   -4.8198    2.7242 C   0  0  0  0  0  0  0  0  0  0  0  0
   -3.6584   -3.6993    2.3272 C   0  0  0  0  0  0  0  0  0  0  0  0
   -3.0119   -2.6345    1.7132 C   0  0  0  0  0  0  0  0  0  0  0  0
    0.3381   -1.1308    1.2524 C   0  0  0  0  0  0  0  0  0  0  0  0
    0.9804   -0.0725    0.6612 C   0  0  0  0  0  0  0  0  0  0  0  0
    0.2893    2.7509   -1.5390 N   0  0  0  0  0  0  0  0  0  0  0  0
    0.8747    3.7990   -2.1126 C   0  0  0  0  0  0  0  0  0  0  0  0
    3.9044    5.0590   -3.0828 H   0  0  0  0  0  0  0  0  0  0  0  0
    2.7304    6.0518   -2.2331 H   0  0  0  0  0  0  0  0  0  0  0  0
    2.3436    5.4110   -3.8187 H   0  0  0  0  0  0  0  0  0  0  0  0
    4.1174    3.0009   -1.7785 H   0  0  0  0  0  0  0  0  0  0  0  0
    3.0550    1.0606   -0.6976 H   0  0  0  0  0  0  0  0  0  0  0  0
   -1.3895    0.8185   -1.5703 H   0  0  0  0  0  0  0  0  0  0  0  0
   -2.5297   -1.0822   -0.5278 H   0  0  0  0  0  0  0  0  0  0  0  0
    0.1436   -3.8431    1.7307 H   0  0  0  0  0  0  0  0  0  0  0  0
   -0.9968   -5.7274    2.7991 H   0  0  0  0  0  0  0  0  0  0  0  0
   -3.4444   -5.6517    3.1979 H   0  0  0  0  0  0  0  0  0  0  0  0
   -4.7221   -3.6408    2.5023 H   0  0  0  0  0  0  0  0  0  0  0  0
   -3.5883   -1.7682    1.4153 H   0  0  0  0  0  0  0  0  0  0  0  0
    0.8316   -1.6634    2.0542 H   0  0  0  0  0  0  0  0  0  0  0  0
    1.9587    0.2172    1.0107 H   0  0  0  0  0  0  0  0  0  0  0  0
    0.2160    4.5565   -2.5053 H   0  0  0  0  0  0  0  0  0  0  0  0
  1  2  1  0
  2  3  2  0
  3  4  1  0
  4  5  2  0
  5  6  1  0
  6  7  2  0
  7  8  1  0
  8  9  2  0
  9 10  1  0
 10 11  2  0
 11 12  1  0
 12 13  2  0
 13 14  1  0
 14 15  2  0
  9 16  1  0
 16 17  2  0
  5 18  1  0
 18 19  2  0
 19  2  1  0
 17  6  1  0
 15 10  1  0
  1 20  1  0
  1 21  1  0
  1 22  1  0
  3 23  1  0
  4 24  1  0
  7 25  1  0
  8 26  1  0
 11 27  1  0
 12 28  1  0
 13 29  1  0
 14 30  1  0
 15 31  1  0
 16 32  1  0
 17 33  1  0
 19 34  1  0
M  END
$$$$

     RDKit          3D

 34 36  0  0  0  0  0  0  0  0999 V2000
   -1.5470   -2.1155   -6.0241 C   0  0  0  0  0  0  0  0  0  0  0  0
   -1.1198   -1.6244   -4.6780 C   0  0  0  0  0  0  0  0  0  0  0  0
    0.2182   -1.5096   -4.3028 C   0  0  0  0  0  0  0  0  0  0  0  0
    0.5414   -1.0490   -3.0416 C   0  0  0  0  0  0  0  0  0  0  0  0
   -0.4687   -0.7050   -2.1540 C   0  0  0  0  0  0  0  0  0  0  0  0
   -0.1787   -0.2080   -0.7901 C   0  0  0  0  0  0  0  0  0  0  0  0
   -1.1098   -0.3855    0.2328 C   0  0  0  0  0  0  0  0  0  0  0  0
   -0.8381    0.0277    1.5137 C   0  0  0  0  0  0  0  0  0  0  0  0
    0.3691    0.6617    1.8271 C   0  0  0  0  0  0  0  0  0  0  0  0
    0.6671    1.1040    3.2164 C   0  0  0  0  0  0  0  0  0  0  0  0
    1.3489    2.2981    3.4586 C   0  0  0  0  0  0  0  0  0  0  0  0
    1.6139    2.7163    4.7470 C   0  0  0  0  0  0  0  0  0  0  0  0
    1.2097    1.9468    5.8327 C   0  0  0  0  0  0  0  0  0  0  0  0
    0.5395    0.7530    5.6045 C   0  0  0  0  0  0  0  0  0  0  0  0
    0.2707    0.3373    4.3080 C   0  0  0  0  0  0  0  0  0  0  0  0
    1.2855    0.8688    0.7927 C   0  0  0  0  0  0  0  0  0  0  0  0
    1.0220    0.4426   -0.4854 C   0  0  0  0  0  0  0  0  0  0  0  0
   -1.7594   -0.8270   -2.4942 N   0  0  0  0  0  0  0  0  0  0  0  0
   -2.0631   -1.2612   -3.7133 C   0  0  0  0  0  0  0  0  0  0  0  0
   -0.7055   -2.1910   -6.7097 H   0  0  0  0  0  0  0  0  0  0  0  0
   -2.0054   -3.1023   -5.9557 H   0  0  0  0  0  0  0  0  0  0  0  0
   -2.2914   -1.4552   -6.4659 H   0  0  0  0  0  0  0  0  0  0  0  0
    0.9928   -1.7870   -4.9937 H   0  0  0  0  0  0  0  0  0  0  0  0
    1.5783   -0.9687   -2.7493 H   0  0  0  0  0  0  0  0  0  0  0  0
   -2.0517   -0.8575    0.0043 H   0  0  0  0  0  0  0  0  0  0  0  0
   -1.5720   -0.1275    2.2908 H   0  0  0  0  0  0  0  0  0  0  0  0
    1.6665    2.9078    2.6189 H   0  0  0  0  0  0  0  0  0  0  0  0
    2.1320    3.6495    4.9033 H   0  0  0  0  0  0  0  0  0  0  0  0
    1.4182    2.2742    6.8424 H   0  0  0  0  0  0  0  0  0  0  0  0
    0.2266    0.1330    6.4297 H   0  0  0  0  0  0  0  0  0  0  0  0
   -0.2474   -0.6012    4.1468 H   0  0  0  0  0  0  0  0  0  0  0  0
    2.2247    1.3614    0.9999 H   0  0  0  0  0  0  0  0  0  0  0  0
    1.7467    0.6215   -1.2607 H   0  0  0  0  0  0  0  0  0  0  0  0
   -3.1138   -1.3280   -3.9509 H   0  0  0  0  0  0  0  0  0  0  0  0
  1  2  1  0
  2  3  2  0
  3  4  1  0
  4  5  2  0
  5  6  1  0
  6  7  2  0
  7  8  1  0
  8  9  2  0
  9 10  1  0
 10 11  2  0
 11 12  1  0
 12 13  2  0
 13 14  1  0
 14 15  2  0
  9 16  1  0
 16 17  2  0
  5 18  1  0
 18 19  2  0
 19  2  1  0
 17  6  1  0
 15 10  1  0
  1 20  1  0
  1 21  1  0
  1 22  1  0
  3 23  1  0
  4 24  1  0
  7 25  1  0
  8 26  1  0
 11 27  1  0
 12 28  1  0
 13 29  1  0
 14 30  1  0
 15 31  1  0
 16 32  1  0
 17 33  1  0
 19 34  1  0
M  END
$$$$

     RDKit          3D

 34 36  0  0  0  0  0  0  0  0999 V2000
   -3.7885    4.8582   -2.2876 C   0  0  0  0  0  0  0  0  0  0  0  0
   -2.8875    3.7800   -1.7801 C   0  0  0  0  0  0  0  0  0  0  0  0
   -1.5857    4.0516   -1.3438 C   0  0  0  0  0  0  0  0  0  0  0  0
   -0.7992    3.0270   -0.8614 C   0  0  0  0  0  0  0  0  0  0  0  0
   -1.3013    1.7336   -0.8116 C   0  0  0  0  0  0  0  0  0  0  0  0
   -0.4937    0.6109   -0.2862 C   0  0  0  0  0  0  0  0  0  0  0  0
   -0.6244   -0.6688   -0.8233 C   0  0  0  0  0  0  0  0  0  0  0  0
    0.1360   -1.7110   -0.3525 C   0  0  0  0  0  0  0  0  0  0  0  0
    1.0548   -1.5240    0.6855 C   0  0  0  0  0  0  0  0  0  0  0  0
    1.8854   -2.6516    1.1913 C   0  0  0  0  0  0  0  0  0  0  0  0
    3.1942   -2.4348    1.6291 C   0  0  0  0  0  0  0  0  0  0  0  0
    3.9706   -3.4777    2.0972 C   0  0  0  0  0  0  0  0  0  0  0  0
    3.4559   -4.7704    2.1441 C   0  0  0  0  0  0  0  0  0  0  0  0
    2.1583   -4.9999    1.7110 C   0  0  0  0  0  0  0  0  0  0  0  0
    1.3825   -3.9503    1.2368 C   0  0  0  0  0  0  0  0  0  0  0  0
    1.1694   -0.2412    1.2313 C   0  0  0  0  0  0  0  0  0  0  0  0
    0.4178    0.8041    0.7571 C   0  0  0  0  0  0  0  0  0  0  0  0
   -2.5345    1.4518   -1.2454 N   0  0  0  0  0  0  0  0  0  0  0  0
   -3.2973    2.4460   -1.7014 C   0  0  0  0  0  0  0  0  0  0  0  0
   -3.2889    5.4597   -3.0477 H   0  0  0  0  0  0  0  0  0  0  0  0
   -4.0725    5.5378   -1.4848 H   0  0  0  0  0  0  0  0  0  0  0  0
   -4.7047    4.4557   -2.7212 H   0  0  0  0  0  0  0  0  0  0  0  0
   -1.2085    5.0580   -1.3949 H   0  0  0  0  0  0  0  0  0  0  0  0
    0.2107    3.2291   -0.5331 H   0  0  0  0  0  0  0  0  0  0  0  0
   -1.3298   -0.8295   -1.6250 H   0  0  0  0  0  0  0  0  0  0  0  0
    0.0337   -2.6899   -0.7951 H   0  0  0  0  0  0  0  0  0  0  0  0
    3.6096   -1.4327    1.5921 H   0  0  0  0  0  0  0  0  0  0  0  0
    4.9824   -3.2820    2.4202 H   0  0  0  0  0  0  0  0  0  0  0  0
    4.0623   -5.5864    2.5145 H   0  0  0  0  0  0  0  0  0  0  0  0
    1.7365   -5.9930    1.7419 H   0  0  0  0  0  0  0  0  0  0  0  0
    0.3679   -4.1476    0.9130 H   0  0  0  0  0  0  0  0  0  0  0  0
    1.8539   -0.0687    2.0491 H   0  0  0  0  0  0  0  0  0  0  0  0
    0.5225    1.7825    1.2027 H   0  0  0  0  0  0  0  0  0  0  0  0
   -4.2878    2.1737   -2.0218 H   0  0  0  0  0  0  0  0  0  0  0  0
  1  2  1  0
  2  3  2  0
  3  4  1  0
  4  5  2  0
  5  6  1  0
  6  7  2  0
  7  8  1  0
  8  9  2  0
  9 10  1  0
 10 11  2  0
 11 12  1  0
 12 13  2  0
 13 14  1  0
 14 15  2  0
  9 16  1  0
 16 17  2  0
  5 18  1  0
 18 19  2  0
 19  2  1  0
 17  6  1  0
 15 10  1  0
  1 20  1  0
  1 21  1  0
  1 22  1  0
  3 23  1  0
  4 24  1  0
  7 25  1  0
  8 26  1  0
 11 27  1  0
 12 28  1  0
 13 29  1  0
 14 30  1  0
 15 31  1  0
 16 32  1  0
 17 33  1  0
 19 34  1  0
M  END
$$$$

     RDKit          3D

 34 36  0  0  0  0  0  0  0  0999 V2000
   -1.8196    5.4608    3.1778 C   0  0  0  0  0  0  0  0  0  0  0  0
   -1.4357    4.2281    2.4275 C   0  0  0  0  0  0  0  0  0  0  0  0
   -2.2717    3.6766    1.4550 C   0  0  0  0  0  0  0  0  0  0  0  0
   -1.8795    2.5409    0.7816 C   0  0  0  0  0  0  0  0  0  0  0  0
   -0.6570    1.9463    1.0718 C   0  0  0  0  0  0  0  0  0  0  0  0
   -0.1940    0.7247    0.3717 C   0  0  0  0  0  0  0  0  0  0  0  0
    0.7746   -0.0993    0.9474 C   0  0  0  0  0  0  0  0  0  0  0  0
    1.1830   -1.2513    0.3215 C   0  0  0  0  0  0  0  0  0  0  0  0
    0.6523   -1.6310   -0.9165 C   0  0  0  0  0  0  0  0  0  0  0  0
    1.0759   -2.8908   -1.5882 C   0  0  0  0  0  0  0  0  0  0  0  0
    1.1698   -2.9667   -2.9787 C   0  0  0  0  0  0  0  0  0  0  0  0
    1.5560   -4.1346   -3.6034 C   0  0  0  0  0  0  0  0  0  0  0  0
    1.8585   -5.2656   -2.8538 C   0  0  0  0  0  0  0  0  0  0  0  0
    1.7691   -5.2042   -1.4713 C   0  0  0  0  0  0  0  0  0  0  0  0
    1.3840   -4.0264   -0.8450 C   0  0  0  0  0  0  0  0  0  0  0  0
   -0.2963   -0.7896   -1.5022 C   0  0  0  0  0  0  0  0  0  0  0  0
   -0.7071    0.3605   -0.8777 C   0  0  0  0  0  0  0  0  0  0  0  0
    0.1489    2.4552    2.0115 N   0  0  0  0  0  0  0  0  0  0  0  0
   -0.2341    3.5579    2.6556 C   0  0  0  0  0  0  0  0  0  0  0  0
   -1.0076    5.8258    3.8031 H   0  0  0  0  0  0  0  0  0  0  0  0
   -2.6836    5.2763    3.8166 H   0  0  0  0  0  0  0  0  0  0  0  0
   -2.1052    6.2629    2.4982 H   0  0  0  0  0  0  0  0  0  0  0  0
   -3.2203    4.1384    1.2428 H   0  0  0  0  0  0  0  0  0  0  0  0
   -2.5342    2.1162    0.0381 H   0  0  0  0  0  0  0  0  0  0  0  0
    1.2017    0.1813    1.8979 H   0  0  0  0  0  0  0  0  0  0  0  0
    1.9358   -1.8704    0.7852 H   0  0  0  0  0  0  0  0  0  0  0  0
    0.9371   -2.0906   -3.5768 H   0  0  0  0  0  0  0  0  0  0  0  0
    1.6295   -4.1588   -4.6785 H   0  0  0  0  0  0  0  0  0  0  0  0
    2.1578   -6.1809   -3.3443 H   0  0  0  0  0  0  0  0  0  0  0  0
    1.9919   -6.0703   -0.8694 H   0  0  0  0  0  0  0  0  0  0  0  0
    1.3196   -3.9989    0.2337 H   0  0  0  0  0  0  0  0  0  0  0  0
   -0.7251   -1.0462   -2.4603 H   0  0  0  0  0  0  0  0  0  0  0  0
   -1.4263    0.9918   -1.3680 H   0  0  0  0  0  0  0  0  0  0  0  0
    0.4518    3.9319    3.3970 H   0  0  0  0  0  0  0  0  0  0  0  0
  1  2  1  0
  2  3  2  0
  3  4  1  0
  4  5  2  0
  5  6  1  0
  6  7  2  0
  7  8  1  0
  8  9  2  0
  9 10  1  0
 10 11  2  0
 11 12  1  0
 12 13  2  0
 13 14  1  0
 14 15  2  0
  9 16  1  0
 16 17  2  0
  5 18  1  0
 18 19  2  0
 19  2  1  0
 17  6  1  0
 15 10  1  0
  1 20  1  0
  1 21  1  0
  1 22  1  0
  3 23  1  0
  4 24  1  0
  7 25  1  0
  8 26  1  0
 11 27  1  0
 12 28  1  0
 13 29  1  0
 14 30  1  0
 15 31  1  0
 16 32  1  0
 17 33  1  0
 19 34  1  0
M  END
$$$$

     RDKit          3D

 34 36  0  0  0  0  0  0  0  0999 V2000
   -0.0345    2.4902    6.0802 C   0  0  0  0  0  0  0  0  0  0  0  0
   -0.0298    1.9895    4.6729 C   0  0  0  0  0  0  0  0  0  0  0  0
    0.2558    2.8142    3.5839 C   0  0  0  0  0  0  0  0  0  0  0  0
    0.2604    2.2871    2.3083 C   0  0  0  0  0  0  0  0  0  0  0  0
   -0.0242    0.9415    2.1141 C   0  0  0  0  0  0  0  0  0  0  0  0
   -0.0238    0.3335    0.7654 C   0  0  0  0  0  0  0  0  0  0  0  0
   -0.8531   -0.7484    0.4729 C   0  0  0  0  0  0  0  0  0  0  0  0
   -0.8559   -1.3164   -0.7780 C   0  0  0  0  0  0  0  0  0  0  0  0
   -0.0249   -0.8303   -1.7940 C   0  0  0  0  0  0  0  0  0  0  0  0
   -0.0133   -1.4509   -3.1482 C   0  0  0  0  0  0  0  0  0  0  0  0
    0.1782   -0.6748   -4.2946 C   0  0  0  0  0  0  0  0  0  0  0  0
    0.1992   -1.2505   -5.5492 C   0  0  0  0  0  0  0  0  0  0  0  0
    0.0307   -2.6242   -5.6950 C   0  0  0  0  0  0  0  0  0  0  0  0
   -0.1623   -3.4071   -4.5664 C   0  0  0  0  0  0  0  0  0  0  0  0
   -0.1882   -2.8229   -3.3046 C   0  0  0  0  0  0  0  0  0  0  0  0
    0.8026    0.2561   -1.4956 C   0  0  0  0  0  0  0  0  0  0  0  0
    0.8065    0.8235   -0.2469 C   0  0  0  0  0  0  0  0  0  0  0  0
   -0.3162    0.1398    3.1469 N   0  0  0  0  0  0  0  0  0  0  0  0
   -0.3043    0.6494    4.3760 C   0  0  0  0  0  0  0  0  0  0  0  0
    0.7999    2.0762    6.6434 H   0  0  0  0  0  0  0  0  0  0  0  0
   -0.9473    2.2005    6.6045 H   0  0  0  0  0  0  0  0  0  0  0  0
    0.0415    3.5774    6.1240 H   0  0  0  0  0  0  0  0  0  0  0  0
    0.4644    3.8551    3.7463 H   0  0  0  0  0  0  0  0  0  0  0  0
    0.4733    2.9273    1.4642 H   0  0  0  0  0  0  0  0  0  0  0  0
   -1.5018   -1.1313    1.2467 H   0  0  0  0  0  0  0  0  0  0  0  0
   -1.5128   -2.1473   -0.9836 H   0  0  0  0  0  0  0  0  0  0  0  0
    0.3020    0.3989   -4.1969 H   0  0  0  0  0  0  0  0  0  0  0  0
    0.3418   -0.6251   -6.4168 H   0  0  0  0  0  0  0  0  0  0  0  0
    0.0539   -3.0759   -6.6789 H   0  0  0  0  0  0  0  0  0  0  0  0
   -0.2905   -4.4749   -4.6535 H   0  0  0  0  0  0  0  0  0  0  0  0
   -0.3327   -3.4500   -2.4352 H   0  0  0  0  0  0  0  0  0  0  0  0
    1.4580    0.6560   -2.2536 H   0  0  0  0  0  0  0  0  0  0  0  0
    1.4690    1.6482   -0.0404 H   0  0  0  0  0  0  0  0  0  0  0  0
   -0.5217   -0.0343    5.1818 H   0  0  0  0  0  0  0  0  0  0  0  0
  1  2  1  0
  2  3  2  0
  3  4  1  0
  4  5  2  0
  5  6  1  0
  6  7  2  0
  7  8  1  0
  8  9  2  0
  9 10  1  0
 10 11  2  0
 11 12  1  0
 12 13  2  0
 13 14  1  0
 14 15  2  0
  9 16  1  0
 16 17  2  0
  5 18  1  0
 18 19  2  0
 19  2  1  0
 17  6  1  0
 15 10  1  0
  1 20  1  0
  1 21  1  0
  1 22  1  0
  3 23  1  0
  4 24  1  0
  7 25  1  0
  8 26  1  0
 11 27  1  0
 12 28  1  0
 13 29  1  0
 14 30  1  0
 15 31  1  0
 16 32  1  0
 17 33  1  0
 19 34  1  0
M  END
$$$$

     RDKit          3D

 34 36  0  0  0  0  0  0  0  0999 V2000
   -4.4775   -3.0217   -3.7434 C   0  0  0  0  0  0  0  0  0  0  0  0
   -3.4968   -2.3482   -2.8376 C   0  0  0  0  0  0  0  0  0  0  0  0
   -3.5840   -2.4285   -1.4450 C   0  0  0  0  0  0  0  0  0  0  0  0
   -2.6373   -1.7982   -0.6633 C   0  0  0  0  0  0  0  0  0  0  0  0
   -1.6058   -1.0872   -1.2632 C   0  0  0  0  0  0  0  0  0  0  0  0
   -0.5773   -0.3834   -0.4661 C   0  0  0  0  0  0  0  0  0  0  0  0
    0.7177   -0.2242   -0.9592 C   0  0  0  0  0  0  0  0  0  0  0  0
    1.6814    0.4138   -0.2164 C   0  0  0  0  0  0  0  0  0  0  0  0
    1.3882    0.9398    1.0464 C   0  0  0  0  0  0  0  0  0  0  0  0
    2.4321    1.6388    1.8473 C   0  0  0  0  0  0  0  0  0  0  0  0
    2.4477    1.5477    3.2410 C   0  0  0  0  0  0  0  0  0  0  0  0
    3.4117    2.1964    3.9852 C   0  0  0  0  0  0  0  0  0  0  0  0
    4.3936    2.9564    3.3560 C   0  0  0  0  0  0  0  0  0  0  0  0
    4.3909    3.0543    1.9719 C   0  0  0  0  0  0  0  0  0  0  0  0
    3.4191    2.4002    1.2262 C   0  0  0  0  0  0  0  0  0  0  0  0
    0.0849    0.7890    1.5313 C   0  0  0  0  0  0  0  0  0  0  0  0
   -0.8763    0.1435    0.7947 C   0  0  0  0  0  0  0  0  0  0  0  0
   -1.5007   -1.0130   -2.5958 N   0  0  0  0  0  0  0  0  0  0  0  0
   -2.4201   -1.6142   -3.3458 C   0  0  0  0  0  0  0  0  0  0  0  0
   -4.0515   -3.9331   -4.1650 H   0  0  0  0  0  0  0  0  0  0  0  0
   -5.3901   -3.3009   -3.2173 H   0  0  0  0  0  0  0  0  0  0  0  0
   -4.7520   -2.3800   -4.5819 H   0  0  0  0  0  0  0  0  0  0  0  0
   -4.3875   -2.9789   -0.9928 H   0  0  0  0  0  0  0  0  0  0  0  0
   -2.6935   -1.8749    0.4137 H   0  0  0  0  0  0  0  0  0  0  0  0
    0.9543   -0.6091   -1.9393 H   0  0  0  0  0  0  0  0  0  0  0  0
    2.6855    0.5016   -0.6048 H   0  0  0  0  0  0  0  0  0  0  0  0
    1.6919    0.9542    3.7454 H   0  0  0  0  0  0  0  0  0  0  0  0
    3.4026    2.1043    5.0602 H   0  0  0  0  0  0  0  0  0  0  0  0
    5.1471    3.4662    3.9402 H   0  0  0  0  0  0  0  0  0  0  0  0
    5.1376    3.6413    1.4617 H   0  0  0  0  0  0  0  0  0  0  0  0
    3.4284    2.4961    0.1473 H   0  0  0  0  0  0  0  0  0  0  0  0
   -0.1786    1.1987    2.4957 H   0  0  0  0  0  0  0  0  0  0  0  0
   -1.8791    0.0580    1.1851 H   0  0  0  0  0  0  0  0  0  0  0  0
   -2.3065   -1.5048   -4.4124 H   0  0  0  0  0  0  0  0  0  0  0  0
  1  2  1  0
  2  3  2  0
  3  4  1  0
  4  5  2  0
  5  6  1  0
  6  7  2  0
  7  8  1  0
  8  9  2  0
  9 10  1  0
 10 11  2  0
 11 12  1  0
 12 13  2  0
 13 14  1  0
 14 15  2  0
  9 16  1  0
 16 17  2  0
  5 18  1  0
 18 19  2  0
 19  2  1  0
 17  6  1  0
 15 10  1  0
  1 20  1  0
  1 21  1  0
  1 22  1  0
  3 23  1  0
  4 24  1  0
  7 25  1  0
  8 26  1  0
 11 27  1  0
 12 28  1  0
 13 29  1  0
 14 30  1  0
 15 31  1  0
 16 32  1  0
 17 33  1  0
 19 34  1  0
M  END
$$$$
