
     RDKit          3D

 24 25  0  0  0  0  0  0  0  0999 V2000
    1.9639   -3.0968    2.3996 C   0  0  0  0  0  0  0  0  0  0  0  0
    1.2875   -2.0747    1.5487 C   0  0  0  0  0  0  0  0  0  0  0  0
    1.3817   -2.0803    0.1547 C   0  0  0  0  0  0  0  0  0  0  0  0
    0.7573   -1.1040   -0.5911 C   0  0  0  0  0  0  0  0  0  0  0  0
    0.0307   -0.0966    0.0581 C   0  0  0  0  0  0  0  0  0  0  0  0
   -0.6529    1.0076   -0.6849 C   0  0  0  0  0  0  0  0  0  0  0  0
   -1.4540    1.9204    0.0150 C   0  0  0  0  0  0  0  0  0  0  0  0
   -2.0961    2.9596   -0.6472 C   0  0  0  0  0  0  0  0  0  0  0  0
   -1.9478    3.1159   -2.0231 C   0  0  0  0  0  0  0  0  0  0  0  0
   -1.1579    2.2249   -2.7275 C   0  0  0  0  0  0  0  0  0  0  0  0
   -0.5158    1.1797   -2.0709 C   0  0  0  0  0  0  0  0  0  0  0  0
   -0.0727   -0.0870    1.3968 N   0  0  0  0  0  0  0  0  0  0  0  0
    0.5248   -1.0355    2.1011 C   0  0  0  0  0  0  0  0  0  0  0  0
    2.9347   -2.7369    2.7409 H   0  0  0  0  0  0  0  0  0  0  0  0
    2.1358   -4.0190    1.8454 H   0  0  0  0  0  0  0  0  0  0  0  0
    1.3697   -3.3272    3.2848 H   0  0  0  0  0  0  0  0  0  0  0  0
    1.9503   -2.8595   -0.3355 H   0  0  0  0  0  0  0  0  0  0  0  0
    0.8161   -1.1237   -1.6684 H   0  0  0  0  0  0  0  0  0  0  0  0
   -1.5753    1.8065    1.0834 H   0  0  0  0  0  0  0  0  0  0  0  0
   -2.7084    3.6507   -0.0855 H   0  0  0  0  0  0  0  0  0  0  0  0
   -2.4450    3.9267   -2.5323 H   0  0  0  0  0  0  0  0  0  0  0  0
   -1.0268    2.3276   -3.7945 H   0  0  0  0  0  0  0  0  0  0  0  0
    0.1004    0.5064   -2.6481 H   0  0  0  0  0  0  0  0  0  0  0  0
    0.3999   -0.9848    3.1805 H   0  0  0  0  0  0  0  0  0  0  0  0
  1  2  1  0
  2  3  2  0
  3  4  1  0
  4  5  2  0
  5  6  1  0
  6  7  2  0
  7  8  1  0
  8  9  2  0
  9 10  1  0
 10 11  2  0
  5 12  1  0
 12 13  2  0
 13  2  1  0
 11  6  1  0
  1 14  1  0
  1 15  1  0
  1 16  1  0
  3 17  1  0
  4 18  1  0
  7 19  1  0
  8 20  1  0
  9 21  1  0
 10 22  1  0
 11 23  1  0
 13 24  1  0
M  END
$$$$

     RDKit          3D

 24 25  0  0  0  0  0  0  0  0999 V2000
    1.7688    1.7328   -3.6121 C   0  0  0  0  0  0  0  0  0  0  0  0
    1.1313    1.1455   -2.3972 C   0  0  0  0  0  0  0  0  0  0  0  0
   -0.2543    1.1347   -2.2024 C   0  0  0  0  0  0  0  0  0  0  0  0
   -0.7958    0.5763   -1.0659 C   0  0  0  0  0  0  0  0  0  0  0  0
    0.0545    0.0256   -0.1004 C   0  0  0  0  0  0  0  0  0  0  0  0
   -0.4708   -0.5673    1.1654 C   0  0  0  0  0  0  0  0  0  0  0  0
    0.3199   -1.4629    1.8929 C   0  0  0  0  0  0  0  0  0  0  0  0
   -0.1499   -2.0300    3.0728 C   0  0  0  0  0  0  0  0  0  0  0  0
   -1.4132   -1.7005    3.5596 C   0  0  0  0  0  0  0  0  0  0  0  0
   -2.2014   -0.8069    2.8553 C   0  0  0  0  0  0  0  0  0  0  0  0
   -1.7410   -0.2444    1.6685 C   0  0  0  0  0  0  0  0  0  0  0  0
    1.3837    0.0128   -0.2839 N   0  0  0  0  0  0  0  0  0  0  0  0
    1.8918    0.5497   -1.3812 C   0  0  0  0  0  0  0  0  0  0  0  0
    1.9042    0.9746   -4.3812 H   0  0  0  0  0  0  0  0  0  0  0  0
    1.1470    2.5212   -4.0383 H   0  0  0  0  0  0  0  0  0  0  0  0
    2.7516    2.1532   -3.3832 H   0  0  0  0  0  0  0  0  0  0  0  0
   -0.9015    1.5693   -2.9544 H   0  0  0  0  0  0  0  0  0  0  0  0
   -1.8668    0.5480   -0.9173 H   0  0  0  0  0  0  0  0  0  0  0  0
    1.3110   -1.7082    1.5292 H   0  0  0  0  0  0  0  0  0  0  0  0
    0.4753   -2.7282    3.6130 H   0  0  0  0  0  0  0  0  0  0  0  0
   -1.7712   -2.1408    4.4780 H   0  0  0  0  0  0  0  0  0  0  0  0
   -3.1807   -0.5300    3.2197 H   0  0  0  0  0  0  0  0  0  0  0  0
   -2.3682    0.4608    1.1432 H   0  0  0  0  0  0  0  0  0  0  0  0
    2.9758    0.5145   -1.4799 H   0  0  0  0  0  0  0  0  0  0  0  0
  1  2  1  0
  2  3  2  0
  3  4  1  0
  4  5  2  0
  5  6  1  0
  6  7  2  0
  7  8  1  0
  8  9  2  0
  9 10  1  0
 10 11  2  0
  5 12  1  0
 12 13  2  0
 13  2  1  0
 11  6  1  0
  1 14  1  0
  1 15  1  0
  1 16  1  0
  3 17  1  0
  4 18  1  0
  7 19  1  0
  8 20  1  0
  9 21  1  0
 10 22  1  0
 11 23  1  0
 13 24  1  0
M  END
$$$$

     RDKit          3D

 24 25  0  0  0  0  0  0  0  0999 V2000
   -2.9797    1.1579   -2.9959 C   0  0  0  0  0  0  0  0  0  0  0  0
   -1.9587    0.8077   -1.9655 C   0  0  0  0  0  0  0  0  0  0  0  0
   -1.0164    1.7243   -1.4909 C   0  0  0  0  0  0  0  0  0  0  0  0
   -0.0792    1.3449   -0.5546 C   0  0  0  0  0  0  0  0  0  0  0  0
   -0.0743    0.0266   -0.0826 C   0  0  0  0  0  0  0  0  0  0  0  0
    0.9141   -0.4516    0.9313 C   0  0  0  0  0  0  0  0  0  0  0  0
    0.7004   -1.6732    1.5812 C   0  0  0  0  0  0  0  0  0  0  0  0
    1.5881   -2.1303    2.5490 C   0  0  0  0  0  0  0  0  0  0  0  0
    2.7201   -1.3873    2.8741 C   0  0  0  0  0  0  0  0  0  0  0  0
    2.9569   -0.1890    2.2243 C   0  0  0  0  0  0  0  0  0  0  0  0
    2.0642    0.2802    1.2643 C   0  0  0  0  0  0  0  0  0  0  0  0
   -0.9798   -0.8609   -0.5268 N   0  0  0  0  0  0  0  0  0  0  0  0
   -1.8760   -0.4822   -1.4229 C   0  0  0  0  0  0  0  0  0  0  0  0
   -3.9632    0.7714   -2.7268 H   0  0  0  0  0  0  0  0  0  0  0  0
   -2.7186    0.7306   -3.9635 H   0  0  0  0  0  0  0  0  0  0  0  0
   -3.0603    2.2399   -3.1221 H   0  0  0  0  0  0  0  0  0  0  0  0
   -1.0287    2.7389   -1.8657 H   0  0  0  0  0  0  0  0  0  0  0  0
    0.6383    2.0590   -0.1763 H   0  0  0  0  0  0  0  0  0  0  0  0
   -0.1684   -2.2632    1.3211 H   0  0  0  0  0  0  0  0  0  0  0  0
    1.3959   -3.0705    3.0456 H   0  0  0  0  0  0  0  0  0  0  0  0
    3.4041   -1.7463    3.6280 H   0  0  0  0  0  0  0  0  0  0  0  0
    3.8342    0.3986    2.4534 H   0  0  0  0  0  0  0  0  0  0  0  0
    2.2774    1.2139    0.7661 H   0  0  0  0  0  0  0  0  0  0  0  0
   -2.5904   -1.2393   -1.7448 H   0  0  0  0  0  0  0  0  0  0  0  0
  1  2  1  0
  2  3  2  0
  3  4  1  0
  4  5  2  0
  5  6  1  0
  6  7  2  0
  7  8  1  0
  8  9  2  0
  9 10  1  0
 10 11  2  0
  5 12  1  0
 12 13  2  0
 13  2  1  0
 11  6  1  0
  1 14  1  0
  1 15  1  0
  1 16  1  0
  3 17  1  0
  4 18  1  0
  7 19  1  0
  8 20  1  0
  9 21  1  0
 10 22  1  0
 11 23  1  0
 13 24  1  0
M  END
$$$$

     RDKit          3D

 24 25  0  0  0  0  0  0  0  0999 V2000
    4.0048    1.6951   -0.5112 C   0  0  0  0  0  0  0  0  0  0  0  0
    2.6514    1.0925   -0.3518 C   0  0  0  0  0  0  0  0  0  0  0  0
    2.4728   -0.2494   -0.0006 C   0  0  0  0  0  0  0  0  0  0  0  0
    1.2085   -0.7686    0.1521 C   0  0  0  0  0  0  0  0  0  0  0  0
    0.0965    0.0638   -0.0306 C   0  0  0  0  0  0  0  0  0  0  0  0
   -1.2998   -0.4390    0.1462 C   0  0  0  0  0  0  0  0  0  0  0  0
   -2.3700    0.2384   -0.4495 C   0  0  0  0  0  0  0  0  0  0  0  0
   -3.6737   -0.2262   -0.3093 C   0  0  0  0  0  0  0  0  0  0  0  0
   -3.9362   -1.3732    0.4351 C   0  0  0  0  0  0  0  0  0  0  0  0
   -2.8889   -2.0442    1.0455 C   0  0  0  0  0  0  0  0  0  0  0  0
   -1.5823   -1.5808    0.9114 C   0  0  0  0  0  0  0  0  0  0  0  0
    0.2522    1.3469   -0.3796 N   0  0  0  0  0  0  0  0  0  0  0  0
    1.4761    1.8347   -0.5277 C   0  0  0  0  0  0  0  0  0  0  0  0
    4.4896    1.8124    0.4557 H   0  0  0  0  0  0  0  0  0  0  0  0
    3.9569    2.6771   -0.9884 H   0  0  0  0  0  0  0  0  0  0  0  0
    4.6487    1.0505   -1.1088 H   0  0  0  0  0  0  0  0  0  0  0  0
    3.3425   -0.8784    0.1460 H   0  0  0  0  0  0  0  0  0  0  0  0
    1.0674   -1.8112    0.3988 H   0  0  0  0  0  0  0  0  0  0  0  0
   -2.1752    1.1377   -1.0227 H   0  0  0  0  0  0  0  0  0  0  0  0
   -4.4837    0.3100   -0.7848 H   0  0  0  0  0  0  0  0  0  0  0  0
   -4.9491   -1.7324    0.5358 H   0  0  0  0  0  0  0  0  0  0  0  0
   -3.0728   -2.9305    1.6365 H   0  0  0  0  0  0  0  0  0  0  0  0
   -0.7808   -2.1083    1.4092 H   0  0  0  0  0  0  0  0  0  0  0  0
    1.5448    2.8831   -0.8072 H   0  0  0  0  0  0  0  0  0  0  0  0
  1  2  1  0
  2  3  2  0
  3  4  1  0
  4  5  2  0
  5  6  1  0
  6  7  2  0
  7  8  1  0
  8  9  2  0
  9 10  1  0
 10 11  2  0
  5 12  1  0
 12 13  2  0
 13  2  1  0
 11  6  1  0
  1 14  1  0
  1 15  1  0
  1 16  1  0
  3 17  1  0
  4 18  1  0
  7 19  1  0
  8 20  1  0
  9 21  1  0
 10 22  1  0
 11 23  1  0
 13 24  1  0
M  END
$$$$

     RDKit          3D

 24 25  0  0  0  0  0  0  0  0999 V2000
    4.0308    1.4058   -0.9590 C   0  0  0  0  0  0  0  0  0  0  0  0
    2.6590    0.9118   -0.6498 C   0  0  0  0  0  0  0  0  0  0  0  0
    2.2186   -0.3528   -1.0588 C   0  0  0  0  0  0  0  0  0  0  0  0
    0.9470   -0.7818   -0.7547 C   0  0  0  0  0  0  0  0  0  0  0  0
    0.0980    0.0610   -0.0274 C   0  0  0  0  0  0  0  0  0  0  0  0
   -1.2850   -0.3577    0.3489 C   0  0  0  0  0  0  0  0  0  0  0  0
   -2.2738    0.6098    0.5484 C   0  0  0  0  0  0  0  0  0  0  0  0
   -3.5698    0.2391    0.8937 C   0  0  0  0  0  0  0  0  0  0  0  0
   -3.8993   -1.1045    1.0567 C   0  0  0  0  0  0  0  0  0  0  0  0
   -2.9239   -2.0728    0.8758 C   0  0  0  0  0  0  0  0  0  0  0  0
   -1.6262   -1.7068    0.5256 C   0  0  0  0  0  0  0  0  0  0  0  0
    0.4981    1.2802    0.3557 N   0  0  0  0  0  0  0  0  0  0  0  0
    1.7287    1.6780    0.0651 C   0  0  0  0  0  0  0  0  0  0  0  0
    4.1804    2.4301   -0.6070 H   0  0  0  0  0  0  0  0  0  0  0  0
    4.2170    1.3753   -2.0320 H   0  0  0  0  0  0  0  0  0  0  0  0
    4.7839    0.7723   -0.4941 H   0  0  0  0  0  0  0  0  0  0  0  0
    2.8928   -0.9858   -1.6249 H   0  0  0  0  0  0  0  0  0  0  0  0
    0.5914   -1.7516   -1.0795 H   0  0  0  0  0  0  0  0  0  0  0  0
   -2.0198    1.6582    0.4367 H   0  0  0  0  0  0  0  0  0  0  0  0
   -4.3217    1.0028    1.0333 H   0  0  0  0  0  0  0  0  0  0  0  0
   -4.9068   -1.3873    1.3210 H   0  0  0  0  0  0  0  0  0  0  0  0
   -3.1557   -3.1201    1.0116 H   0  0  0  0  0  0  0  0  0  0  0  0
   -0.8719   -2.4723    0.3983 H   0  0  0  0  0  0  0  0  0  0  0  0
    2.0081    2.6689    0.4161 H   0  0  0  0  0  0  0  0  0  0  0  0
  1  2  1  0
  2  3  2  0
  3  4  1  0
  4  5  2  0
  5  6  1  0
  6  7  2  0
  7  8  1  0
  8  9  2  0
  9 10  1  0
 10 11  2  0
  5 12  1  0
 12 13  2  0
 13  2  1  0
 11  6  1  0
  1 14  1  0
  1 15  1  0
  1 16  1  0
  3 17  1  0
  4 18  1  0
  7 19  1  0
  8 20  1  0
  9 21  1  0
 10 22  1  0
 11 23  1  0
 13 24  1  0
M  END
$$$$

     RDKit          3D

 24 25  0  0  0  0  0  0  0  0999 V2000
   -3.4283   -2.7152   -0.1397 C   0  0  0  0  0  0  0  0  0  0  0  0
   -2.2872   -1.7549   -0.0964 C   0  0  0  0  0  0  0  0  0  0  0  0
   -2.3837   -0.4382   -0.5530 C   0  0  0  0  0  0  0  0  0  0  0  0
   -1.2925    0.4007   -0.5008 C   0  0  0  0  0  0  0  0  0  0  0  0
   -0.0842   -0.0787    0.0183 C   0  0  0  0  0  0  0  0  0  0  0  0
    1.1353    0.7774    0.0842 C   0  0  0  0  0  0  0  0  0  0  0  0
    2.1119    0.5360    1.0558 C   0  0  0  0  0  0  0  0  0  0  0  0
    3.2496    1.3347    1.1313 C   0  0  0  0  0  0  0  0  0  0  0  0
    3.4384    2.3779    0.2268 C   0  0  0  0  0  0  0  0  0  0  0  0
    2.4827    2.6192   -0.7471 C   0  0  0  0  0  0  0  0  0  0  0  0
    1.3385    1.8286   -0.8202 C   0  0  0  0  0  0  0  0  0  0  0  0
    0.0173   -1.3338    0.4771 N   0  0  0  0  0  0  0  0  0  0  0  0
   -1.0359   -2.1303    0.4147 C   0  0  0  0  0  0  0  0  0  0  0  0
   -4.3166   -2.2575   -0.5831 H   0  0  0  0  0  0  0  0  0  0  0  0
   -3.6887   -3.0558    0.8616 H   0  0  0  0  0  0  0  0  0  0  0  0
   -3.1715   -3.5997   -0.7237 H   0  0  0  0  0  0  0  0  0  0  0  0
   -3.3257   -0.0778   -0.9443 H   0  0  0  0  0  0  0  0  0  0  0  0
   -1.3646    1.4261   -0.8393 H   0  0  0  0  0  0  0  0  0  0  0  0
    1.9739   -0.2835    1.7539 H   0  0  0  0  0  0  0  0  0  0  0  0
    3.9877    1.1392    1.8980 H   0  0  0  0  0  0  0  0  0  0  0  0
    4.3249    2.9921    0.2870 H   0  0  0  0  0  0  0  0  0  0  0  0
    2.6132    3.4187   -1.4621 H   0  0  0  0  0  0  0  0  0  0  0  0
    0.6054    2.0198   -1.5910 H   0  0  0  0  0  0  0  0  0  0  0  0
   -0.8999   -3.1450    0.7921 H   0  0  0  0  0  0  0  0  0  0  0  0
  1  2  1  0
  2  3  2  0
  3  4  1  0
  4  5  2  0
  5  6  1  0
  6  7  2  0
  7  8  1  0
  8  9  2  0
  9 10  1  0
 10 11  2  0
  5 12  1  0
 12 13  2  0
 13  2  1  0
 11  6  1  0
  1 14  1  0
  1 15  1  0
  1 16  1  0
  3 17  1  0
  4 18  1  0
  7 19  1  0
  8 20  1  0
  9 21  1  0
 10 22  1  0
 11 23  1  0
 13 24  1  0
M  END
$$$$

     RDKit          3D

 24 25  0  0  0  0  0  0  0  0999 V2000
   -2.0549    2.2480    3.1430 C   0  0  0  0  0  0  0  0  0  0  0  0
   -1.3182    1.5080    2.0787 C   0  0  0  0  0  0  0  0  0  0  0  0
    0.0625    1.6120    1.8982 C   0  0  0  0  0  0  0  0  0  0  0  0
    0.6925    0.8922    0.9066 C   0  0  0  0  0  0  0  0  0  0  0  0
   -0.0650    0.0511    0.0823 C   0  0  0  0  0  0  0  0  0  0  0  0
    0.5608   -0.7564   -1.0073 C   0  0  0  0  0  0  0  0  0  0  0  0
   -0.2116   -1.1704   -2.0978 C   0  0  0  0  0  0  0  0  0  0  0  0
    0.3578   -1.9098   -3.1299 C   0  0  0  0  0  0  0  0  0  0  0  0
    1.7057   -2.2597   -3.0889 C   0  0  0  0  0  0  0  0  0  0  0  0
    2.4792   -1.8643   -2.0092 C   0  0  0  0  0  0  0  0  0  0  0  0
    1.9152   -1.1205   -0.9749 C   0  0  0  0  0  0  0  0  0  0  0  0
   -1.3926   -0.0505    0.2372 N   0  0  0  0  0  0  0  0  0  0  0  0
   -1.9831    0.6442    1.1968 C   0  0  0  0  0  0  0  0  0  0  0  0
   -2.9280    2.7614    2.7334 H   0  0  0  0  0  0  0  0  0  0  0  0
   -2.4123    1.5652    3.9114 H   0  0  0  0  0  0  0  0  0  0  0  0
   -1.4154    2.9920    3.6221 H   0  0  0  0  0  0  0  0  0  0  0  0
    0.6335    2.2712    2.5382 H   0  0  0  0  0  0  0  0  0  0  0  0
    1.7598    0.9755    0.7545 H   0  0  0  0  0  0  0  0  0  0  0  0
   -1.2638   -0.9108   -2.1315 H   0  0  0  0  0  0  0  0  0  0  0  0
   -0.2559   -2.2105   -3.9689 H   0  0  0  0  0  0  0  0  0  0  0  0
    2.1405   -2.8376   -3.8902 H   0  0  0  0  0  0  0  0  0  0  0  0
    3.5254   -2.1295   -1.9559 H   0  0  0  0  0  0  0  0  0  0  0  0
    2.5306   -0.8291   -0.1360 H   0  0  0  0  0  0  0  0  0  0  0  0
   -3.0629    0.5281    1.2878 H   0  0  0  0  0  0  0  0  0  0  0  0
  1  2  1  0
  2  3  2  0
  3  4  1  0
  4  5  2  0
  5  6  1  0
  6  7  2  0
  7  8  1  0
  8  9  2  0
  9 10  1  0
 10 11  2  0
  5 12  1  0
 12 13  2  0
 13  2  1  0
 11  6  1  0
  1 14  1  0
  1 15  1  0
  1 16  1  0
  3 17  1  0
  4 18  1  0
  7 19  1  0
  8 20  1  0
  9 21  1  0
 10 22  1  0
 11 23  1  0
 13 24  1  0
M  END
$$$$

     RDKit          3D

 24 25  0  0  0  0  0  0  0  0999 V2000
   -0.0630   -3.3095    2.8626 C   0  0  0  0  0  0  0  0  0  0  0  0
   -0.0838   -2.1724    1.8989 C   0  0  0  0  0  0  0  0  0  0  0  0
   -0.4873   -0.8863    2.2721 C   0  0  0  0  0  0  0  0  0  0  0  0
   -0.4638    0.1443    1.3601 C   0  0  0  0  0  0  0  0  0  0  0  0
   -0.0238   -0.1058    0.0537 C   0  0  0  0  0  0  0  0  0  0  0  0
    0.0529    0.9789   -0.9692 C   0  0  0  0  0  0  0  0  0  0  0  0
   -0.0094    0.6605   -2.3302 C   0  0  0  0  0  0  0  0  0  0  0  0
    0.0620    1.6583   -3.2969 C   0  0  0  0  0  0  0  0  0  0  0  0
    0.1999    2.9932   -2.9240 C   0  0  0  0  0  0  0  0  0  0  0  0
    0.2753    3.3207   -1.5793 C   0  0  0  0  0  0  0  0  0  0  0  0
    0.2058    2.3251   -0.6073 C   0  0  0  0  0  0  0  0  0  0  0  0
    0.3427   -1.3359   -0.3249 N   0  0  0  0  0  0  0  0  0  0  0  0
    0.3182   -2.3193    0.5640 C   0  0  0  0  0  0  0  0  0  0  0  0
   -0.9720   -3.3242    3.4641 H   0  0  0  0  0  0  0  0  0  0  0  0
    0.7720   -3.2115    3.5544 H   0  0  0  0  0  0  0  0  0  0  0  0
    0.0330   -4.2706    2.3527 H   0  0  0  0  0  0  0  0  0  0  0  0
   -0.8284   -0.7115    3.2863 H   0  0  0  0  0  0  0  0  0  0  0  0
   -0.7861    1.1387    1.6372 H   0  0  0  0  0  0  0  0  0  0  0  0
   -0.1073   -0.3776   -2.6271 H   0  0  0  0  0  0  0  0  0  0  0  0
    0.0038    1.3910   -4.3436 H   0  0  0  0  0  0  0  0  0  0  0  0
    0.2539    3.7630   -3.6787 H   0  0  0  0  0  0  0  0  0  0  0  0
    0.3938    4.3490   -1.2673 H   0  0  0  0  0  0  0  0  0  0  0  0
    0.2798    2.5987    0.4362 H   0  0  0  0  0  0  0  0  0  0  0  0
    0.6317   -3.2966    0.2063 H   0  0  0  0  0  0  0  0  0  0  0  0
  1  2  1  0
  2  3  2  0
  3  4  1  0
  4  5  2  0
  5  6  1  0
  6  7  2  0
  7  8  1  0
  8  9  2  0
  9 10  1  0
 10 11  2  0
  5 12  1  0
 12 13  2  0
 13  2  1  0
 11  6  1  0
  1 14  1  0
  1 15  1  0
  1 16  1  0
  3 17  1  0
  4 18  1  0
  7 19  1  0
  8 20  1  0
  9 21  1  0
 10 22  1  0
 11 23  1  0
 13 24  1  0
M  END
$$$$

     RDKit          3D

 24 25  0  0  0  0  0  0  0  0999 V2000
    1.7734    1.8079    3.5697 C   0  0  0  0  0  0  0  0  0  0  0  0
    1.1974    1.1552    2.3586 C   0  0  0  0  0  0  0  0  0  0  0  0
    1.1138   -0.2319    2.2081 C   0  0  0  0  0  0  0  0  0  0  0  0
    0.5558   -0.7787    1.0747 C   0  0  0  0  0  0  0  0  0  0  0  0
    0.0595    0.0684    0.0771 C   0  0  0  0  0  0  0  0  0  0  0  0
   -0.5811   -0.4719   -1.1581 C   0  0  0  0  0  0  0  0  0  0  0  0
   -0.5778    0.2808   -2.3354 C   0  0  0  0  0  0  0  0  0  0  0  0
   -1.1635   -0.2166   -3.4959 C   0  0  0  0  0  0  0  0  0  0  0  0
   -1.7665   -1.4729   -3.5003 C   0  0  0  0  0  0  0  0  0  0  0  0
   -1.7866   -2.2227   -2.3354 C   0  0  0  0  0  0  0  0  0  0  0  0
   -1.2030   -1.7281   -1.1709 C   0  0  0  0  0  0  0  0  0  0  0  0
    0.1501    1.3988    0.1993 N   0  0  0  0  0  0  0  0  0  0  0  0
    0.6891    1.9130    1.2930 C   0  0  0  0  0  0  0  0  0  0  0  0
    2.2321    1.0760    4.2376 H   0  0  0  0  0  0  0  0  0  0  0  0
    1.0018    2.3363    4.1269 H   0  0  0  0  0  0  0  0  0  0  0  0
    2.5336    2.5447    3.2976 H   0  0  0  0  0  0  0  0  0  0  0  0
    1.4960   -0.8773    2.9878 H   0  0  0  0  0  0  0  0  0  0  0  0
    0.5107   -1.8511    0.9380 H   0  0  0  0  0  0  0  0  0  0  0  0
   -0.1157    1.2618   -2.3351 H   0  0  0  0  0  0  0  0  0  0  0  0
   -1.1410    0.3774   -4.3991 H   0  0  0  0  0  0  0  0  0  0  0  0
   -2.2167   -1.8553   -4.4047 H   0  0  0  0  0  0  0  0  0  0  0  0
   -2.2575   -3.1956   -2.3142 H   0  0  0  0  0  0  0  0  0  0  0  0
   -1.2351   -2.3191   -0.2673 H   0  0  0  0  0  0  0  0  0  0  0  0
    0.7313    3.0006    1.3478 H   0  0  0  0  0  0  0  0  0  0  0  0
  1  2  1  0
  2  3  2  0
  3  4  1  0
  4  5  2  0
  5  6  1  0
  6  7  2  0
  7  8  1  0
  8  9  2  0
  9 10  1  0
 10 11  2  0
  5 12  1  0
 12 13  2  0
 13  2  1  0
 11  6  1  0
  1 14  1  0
  1 15  1  0
  1 16  1  0
  3 17  1  0
  4 18  1  0
  7 19  1  0
  8 20  1  0
  9 21  1  0
 10 22  1  0
 11 23  1  0
 13 24  1  0
M  END
$$$$

     RDKit          3D

 24 25  0  0  0  0  0  0  0  0999 V2000
    0.3820   -1.5710    4.0689 C   0  0  0  0  0  0  0  0  0  0  0  0
    0.2435   -1.0765    2.6677 C   0  0  0  0  0  0  0  0  0  0  0  0
    0.6438   -1.8242    1.5574 C   0  0  0  0  0  0  0  0  0  0  0  0
    0.5120   -1.3126    0.2860 C   0  0  0  0  0  0  0  0  0  0  0  0
   -0.0287   -0.0328    0.1137 C   0  0  0  0  0  0  0  0  0  0  0  0
   -0.1661    0.5812   -1.2393 C   0  0  0  0  0  0  0  0  0  0  0  0
   -1.1250    1.5729   -1.4734 C   0  0  0  0  0  0  0  0  0  0  0  0
   -1.2552    2.1509   -2.7324 C   0  0  0  0  0  0  0  0  0  0  0  0
   -0.4246    1.7542   -3.7789 C   0  0  0  0  0  0  0  0  0  0  0  0
    0.5308    0.7767   -3.5588 C   0  0  0  0  0  0  0  0  0  0  0  0
    0.6618    0.1931   -2.3024 C   0  0  0  0  0  0  0  0  0  0  0  0
   -0.4398    0.6859    1.1671 N   0  0  0  0  0  0  0  0  0  0  0  0
   -0.3058    0.1833    2.3848 C   0  0  0  0  0  0  0  0  0  0  0  0
    0.9724   -0.8793    4.6710 H   0  0  0  0  0  0  0  0  0  0  0  0
   -0.5925   -1.6647    4.5461 H   0  0  0  0  0  0  0  0  0  0  0  0
    0.8690   -2.5495    4.0994 H   0  0  0  0  0  0  0  0  0  0  0  0
    1.0595   -2.8126    1.7010 H   0  0  0  0  0  0  0  0  0  0  0  0
    0.8105   -1.8898   -0.5780 H   0  0  0  0  0  0  0  0  0  0  0  0
   -1.7726    1.8857   -0.6611 H   0  0  0  0  0  0  0  0  0  0  0  0
   -2.0059    2.9120   -2.8931 H   0  0  0  0  0  0  0  0  0  0  0  0
   -0.5269    2.2088   -4.7524 H   0  0  0  0  0  0  0  0  0  0  0  0
    1.1879    0.4563   -4.3537 H   0  0  0  0  0  0  0  0  0  0  0  0
    1.4207   -0.5598   -2.1456 H   0  0  0  0  0  0  0  0  0  0  0  0
   -0.6506    0.8118    3.2059 H   0  0  0  0  0  0  0  0  0  0  0  0
  1  2  1  0
  2  3  2  0
  3  4  1  0
  4  5  2  0
  5  6  1  0
  6  7  2  0
  7  8  1  0
  8  9  2  0
  9 10  1  0
 10 11  2  0
  5 12  1  0
 12 13  2  0
 13  2  1  0
 11  6  1  0
  1 14  1  0
  1 15  1  0
  1 16  1  0
  3 17  1  0
  4 18  1  0
  7 19  1  0
  8 20  1  0
  9 21  1  0
 10 22  1  0
 11 23  1  0
 13 24  1  0
M  END
$$$$

     RDKit          3D

 24 25  0  0  0  0  0  0  0  0999 V2000
   -2.3521   -1.6246    3.3132 C   0  0  0  0  0  0  0  0  0  0  0  0
   -1.5737   -1.0732    2.1650 C   0  0  0  0  0  0  0  0  0  0  0  0
   -2.1750   -0.7183    0.9518 C   0  0  0  0  0  0  0  0  0  0  0  0
   -1.4186   -0.2091   -0.0790 C   0  0  0  0  0  0  0  0  0  0  0  0
   -0.0393   -0.0463    0.0993 C   0  0  0  0  0  0  0  0  0  0  0  0
    0.8282    0.4963   -0.9850 C   0  0  0  0  0  0  0  0  0  0  0  0
    1.9783    1.2196   -0.6624 C   0  0  0  0  0  0  0  0  0  0  0  0
    2.7883    1.7456   -1.6634 C   0  0  0  0  0  0  0  0  0  0  0  0
    2.4734    1.5391   -3.0059 C   0  0  0  0  0  0  0  0  0  0  0  0
    1.3437    0.8091   -3.3373 C   0  0  0  0  0  0  0  0  0  0  0  0
    0.5234    0.2917   -2.3371 C   0  0  0  0  0  0  0  0  0  0  0  0
    0.5484   -0.3669    1.2585 N   0  0  0  0  0  0  0  0  0  0  0  0
   -0.1898   -0.8605    2.2427 C   0  0  0  0  0  0  0  0  0  0  0  0
   -3.0922   -2.3494    2.9679 H   0  0  0  0  0  0  0  0  0  0  0  0
   -2.8982   -0.8351    3.8229 H   0  0  0  0  0  0  0  0  0  0  0  0
   -1.7023   -2.1178    4.0415 H   0  0  0  0  0  0  0  0  0  0  0  0
   -3.2460   -0.8465    0.8317 H   0  0  0  0  0  0  0  0  0  0  0  0
   -1.8748    0.0818   -1.0169 H   0  0  0  0  0  0  0  0  0  0  0  0
    2.2345    1.3670    0.3818 H   0  0  0  0  0  0  0  0  0  0  0  0
    3.6666    2.3140   -1.3924 H   0  0  0  0  0  0  0  0  0  0  0  0
    3.1065    1.9495   -3.7781 H   0  0  0  0  0  0  0  0  0  0  0  0
    1.0859    0.6294   -4.3714 H   0  0  0  0  0  0  0  0  0  0  0  0
   -0.3533   -0.2802   -2.6077 H   0  0  0  0  0  0  0  0  0  0  0  0
    0.3378   -1.1153    3.1604 H   0  0  0  0  0  0  0  0  0  0  0  0
  1  2  1  0
  2  3  2  0
  3  4  1  0
  4  5  2  0
  5  6  1  0
  6  7  2  0
  7  8  1  0
  8  9  2  0
  9 10  1  0
 10 11  2  0
  5 12  1  0
 12 13  2  0
 13  2  1  0
 11  6  1  0
  1 14  1  0
  1 15  1  0
  1 16  1  0
  3 17  1  0
  4 18  1  0
  7 19  1  0
  8 20  1  0
  9 21  1  0
 10 22  1  0
 11 23  1  0
 13 24  1  0
M  END
$$$$

     RDKit          3D

 24 25  0  0  0  0  0  0  0  0999 V2000
    0.9518   -4.0226    1.4449 C   0  0  0  0  0  0  0  0  0  0  0  0
    0.6390   -2.6363    0.9907 C   0  0  0  0  0  0  0  0  0  0  0  0
    0.8886   -1.5039    1.7722 C   0  0  0  0  0  0  0  0  0  0  0  0
    0.5897   -0.2449    1.2992 C   0  0  0  0  0  0  0  0  0  0  0  0
    0.0254   -0.1083    0.0260 C   0  0  0  0  0  0  0  0  0  0  0  0
   -0.3342    1.2271   -0.5360 C   0  0  0  0  0  0  0  0  0  0  0  0
   -0.4435    1.3939   -1.9204 C   0  0  0  0  0  0  0  0  0  0  0  0
   -0.7704    2.6319   -2.4637 C   0  0  0  0  0  0  0  0  0  0  0  0
   -1.0107    3.7240   -1.6331 C   0  0  0  0  0  0  0  0  0  0  0  0
   -0.9171    3.5693   -0.2601 C   0  0  0  0  0  0  0  0  0  0  0  0
   -0.5797    2.3351    0.2881 C   0  0  0  0  0  0  0  0  0  0  0  0
   -0.2092   -1.1873   -0.7369 N   0  0  0  0  0  0  0  0  0  0  0  0
    0.0816   -2.3901   -0.2719 C   0  0  0  0  0  0  0  0  0  0  0  0
    1.1462   -4.0571    2.5185 H   0  0  0  0  0  0  0  0  0  0  0  0
    1.8370   -4.4056    0.9378 H   0  0  0  0  0  0  0  0  0  0  0  0
    0.1296   -4.7046    1.2230 H   0  0  0  0  0  0  0  0  0  0  0  0
    1.3202   -1.6242    2.7576 H   0  0  0  0  0  0  0  0  0  0  0  0
    0.7965    0.6336    1.8956 H   0  0  0  0  0  0  0  0  0  0  0  0
   -0.2690    0.5448   -2.5696 H   0  0  0  0  0  0  0  0  0  0  0  0
   -0.8389    2.7396   -3.5378 H   0  0  0  0  0  0  0  0  0  0  0  0
   -1.2675    4.6820   -2.0587 H   0  0  0  0  0  0  0  0  0  0  0  0
   -1.1047    4.4030    0.4018 H   0  0  0  0  0  0  0  0  0  0  0  0
   -0.5216    2.2318    1.3626 H   0  0  0  0  0  0  0  0  0  0  0  0
   -0.1389   -3.2311   -0.9299 H   0  0  0  0  0  0  0  0  0  0  0  0
  1  2  1  0
  2  3  2  0
  3  4  1  0
  4  5  2  0
  5  6  1  0
  6  7  2  0
  7  8  1  0
  8  9  2  0
  9 10  1  0
 10 11  2  0
  5 12  1  0
 12 13  2  0
 13  2  1  0
 11  6  1  0
  1 14  1  0
  1 15  1  0
  1 16  1  0
  3 17  1  0
  4 18  1  0
  7 19  1  0
  8 20  1  0
  9 21  1  0
 10 22  1  0
 11 23  1  0
 13 24  1  0
M  END
$$$$
