
     RDKit          3D

 24 26  0  0  0  0  0  0  0  0999 V2000
    3.8172    2.0651    1.2253 C   0  0  0  0  0  0  0  0  0  0  0  0
    2.8238    2.6966    0.4683 C   0  0  0  0  0  0  0  0  0  0  0  0
    1.6716    2.0126    0.1077 C   0  0  0  0  0  0  0  0  0  0  0  0
    1.4916    0.6729    0.4998 C   0  0  0  0  0  0  0  0  0  0  0  0
    0.2642   -0.0515    0.1266 C   0  0  0  0  0  0  0  0  0  0  0  0
   -0.7003    0.5096   -0.5436 N   0  0  0  0  0  0  0  0  0  0  0  0
   -1.7333   -0.3830   -0.7444 C   0  0  0  0  0  0  0  0  0  0  0  0
   -2.9378   -0.0945   -1.4300 C   0  0  0  0  0  0  0  0  0  0  0  0
   -3.8872   -1.0916   -1.5560 C   0  0  0  0  0  0  0  0  0  0  0  0
   -3.6686   -2.3785   -1.0178 C   0  0  0  0  0  0  0  0  0  0  0  0
   -2.4889   -2.6672   -0.3376 C   0  0  0  0  0  0  0  0  0  0  0  0
   -1.5224   -1.6659   -0.2003 C   0  0  0  0  0  0  0  0  0  0  0  0
    0.0138   -1.7182    0.5669 S   0  0  0  0  0  0  0  0  0  0  0  0
    2.4909    0.0479    1.2499 C   0  0  0  0  0  0  0  0  0  0  0  0
    3.6440    0.7396    1.6106 C   0  0  0  0  0  0  0  0  0  0  0  0
    4.7136    2.6041    1.5070 H   0  0  0  0  0  0  0  0  0  0  0  0
    2.9501    3.7292    0.1607 H   0  0  0  0  0  0  0  0  0  0  0  0
    0.9079    2.5088   -0.4815 H   0  0  0  0  0  0  0  0  0  0  0  0
   -3.0923    0.8977   -1.8388 H   0  0  0  0  0  0  0  0  0  0  0  0
   -4.8095   -0.8829   -2.0757 H   0  0  0  0  0  0  0  0  0  0  0  0
   -4.4247   -3.1406   -1.1347 H   0  0  0  0  0  0  0  0  0  0  0  0
   -2.3110   -3.6539    0.0806 H   0  0  0  0  0  0  0  0  0  0  0  0
    2.3814   -0.9919    1.5647 H   0  0  0  0  0  0  0  0  0  0  0  0
    4.4058    0.2354    2.1921 H   0  0  0  0  0  0  0  0  0  0  0  0
  1  2  2  0
  2  3  1  0
  3  4  2  0
  4  5  1  0
  5  6  2  0
  6  7  1  0
  7  8  2  0
  8  9  1  0
  9 10  2  0
 10 11  1  0
 11 12  2  0
 12 13  1  0
  4 14  1  0
 14 15  2  0
 15  1  1  0
 13  5  1  0
 12  7  1  0
  1 16  1  0
  2 17  1  0
  3 18  1  0
  8 19  1  0
  9 20  1  0
 10 21  1  0
 11 22  1  0
 14 23  1  0
 15 24  1  0
M  END
$$$$

     RDKit          3D

 24 26  0  0  0  0  0  0  0  0999 V2000
   -0.4633    2.7238   -3.5663 C   0  0  0  0  0  0  0  0  0  0  0  0
   -0.4687    1.3273   -3.6747 C   0  0  0  0  0  0  0  0  0  0  0  0
   -0.3336    0.5313   -2.5452 C   0  0  0  0  0  0  0  0  0  0  0  0
   -0.1855    1.1228   -1.2775 C   0  0  0  0  0  0  0  0  0  0  0  0
   -0.0266    0.2807   -0.0775 C   0  0  0  0  0  0  0  0  0  0  0  0
   -0.0037   -1.0193   -0.1341 N   0  0  0  0  0  0  0  0  0  0  0  0
    0.1619   -1.5536    1.1290 C   0  0  0  0  0  0  0  0  0  0  0  0
    0.2236   -2.9367    1.4267 C   0  0  0  0  0  0  0  0  0  0  0  0
    0.3949   -3.3261    2.7409 C   0  0  0  0  0  0  0  0  0  0  0  0
    0.5051   -2.3722    3.7757 C   0  0  0  0  0  0  0  0  0  0  0  0
    0.4384   -1.0116    3.4914 C   0  0  0  0  0  0  0  0  0  0  0  0
    0.2620   -0.6040    2.1654 C   0  0  0  0  0  0  0  0  0  0  0  0
    0.1505    0.9785    1.5078 S   0  0  0  0  0  0  0  0  0  0  0  0
   -0.1888    2.5170   -1.1772 C   0  0  0  0  0  0  0  0  0  0  0  0
   -0.3252    3.3118   -2.3127 C   0  0  0  0  0  0  0  0  0  0  0  0
   -0.5619    3.3405   -4.4500 H   0  0  0  0  0  0  0  0  0  0  0  0
   -0.5799    0.8577   -4.6462 H   0  0  0  0  0  0  0  0  0  0  0  0
   -0.3396   -0.5504   -2.6379 H   0  0  0  0  0  0  0  0  0  0  0  0
    0.1396   -3.6566    0.6224 H   0  0  0  0  0  0  0  0  0  0  0  0
    0.4431   -4.3770    2.9806 H   0  0  0  0  0  0  0  0  0  0  0  0
    0.6419   -2.7062    4.7932 H   0  0  0  0  0  0  0  0  0  0  0  0
    0.5215   -0.2688    4.2795 H   0  0  0  0  0  0  0  0  0  0  0  0
   -0.0854    3.0006   -0.2027 H   0  0  0  0  0  0  0  0  0  0  0  0
   -0.3201    4.3903   -2.2102 H   0  0  0  0  0  0  0  0  0  0  0  0
  1  2  2  0
  2  3  1  0
  3  4  2  0
  4  5  1  0
  5  6  2  0
  6  7  1  0
  7  8  2  0
  8  9  1  0
  9 10  2  0
 10 11  1  0
 11 12  2  0
 12 13  1  0
  4 14  1  0
 14 15  2  0
 15  1  1  0
 13  5  1  0
 12  7  1  0
  1 16  1  0
  2 17  1  0
  3 18  1  0
  8 19  1  0
  9 20  1  0
 10 21  1  0
 11 22  1  0
 14 23  1  0
 15 24  1  0
M  END
$$$$

     RDKit          3D

 24 26  0  0  0  0  0  0  0  0999 V2000
   -3.3278    1.3443   -2.7314 C   0  0  0  0  0  0  0  0  0  0  0  0
   -2.7321    2.3007   -1.9066 C   0  0  0  0  0  0  0  0  0  0  0  0
   -1.7070    1.9438   -1.0464 C   0  0  0  0  0  0  0  0  0  0  0  0
   -1.2508    0.6198   -0.9876 C   0  0  0  0  0  0  0  0  0  0  0  0
   -0.1614    0.2359   -0.0735 C   0  0  0  0  0  0  0  0  0  0  0  0
    0.3345   -0.9663   -0.0473 N   0  0  0  0  0  0  0  0  0  0  0  0
    1.3383   -1.0565    0.8967 C   0  0  0  0  0  0  0  0  0  0  0  0
    2.0914   -2.2209    1.1809 C   0  0  0  0  0  0  0  0  0  0  0  0
    3.0598   -2.1616    2.1646 C   0  0  0  0  0  0  0  0  0  0  0  0
    3.3094   -0.9659    2.8731 C   0  0  0  0  0  0  0  0  0  0  0  0
    2.5767    0.1830    2.5962 C   0  0  0  0  0  0  0  0  0  0  0  0
    1.5884    0.1354    1.6078 C   0  0  0  0  0  0  0  0  0  0  0  0
    0.5412    1.3728    1.0411 S   0  0  0  0  0  0  0  0  0  0  0  0
   -1.8501   -0.3413   -1.8179 C   0  0  0  0  0  0  0  0  0  0  0  0
   -2.8803    0.0242   -2.6850 C   0  0  0  0  0  0  0  0  0  0  0  0
   -4.1309    1.6287   -3.4017 H   0  0  0  0  0  0  0  0  0  0  0  0
   -3.0665    3.3302   -1.9361 H   0  0  0  0  0  0  0  0  0  0  0  0
   -1.2577    2.7080   -0.4069 H   0  0  0  0  0  0  0  0  0  0  0  0
    1.8938   -3.1335    0.6285 H   0  0  0  0  0  0  0  0  0  0  0  0
    3.6422   -3.0413    2.3898 H   0  0  0  0  0  0  0  0  0  0  0  0
    4.0744   -0.9482    3.6358 H   0  0  0  0  0  0  0  0  0  0  0  0
    2.7585    1.1075    3.1379 H   0  0  0  0  0  0  0  0  0  0  0  0
   -1.5099   -1.3702   -1.7922 H   0  0  0  0  0  0  0  0  0  0  0  0
   -3.3341   -0.7287   -3.3198 H   0  0  0  0  0  0  0  0  0  0  0  0
  1  2  2  0
  2  3  1  0
  3  4  2  0
  4  5  1  0
  5  6  2  0
  6  7  1  0
  7  8  2  0
  8  9  1  0
  9 10  2  0
 10 11  1  0
 11 12  2  0
 12 13  1  0
  4 14  1  0
 14 15  2  0
 15  1  1  0
 13  5  1  0
 12  7  1  0
  1 16  1  0
  2 17  1  0
  3 18  1  0
  8 19  1  0
  9 20  1  0
 10 21  1  0
 11 22  1  0
 14 23  1  0
 15 24  1  0
M  END
$$$$

     RDKit          3D

 24 26  0  0  0  0  0  0  0  0999 V2000
    3.4129   -0.0887   -2.9477 C   0  0  0  0  0  0  0  0  0  0  0  0
    3.3904    0.7693   -1.8405 C   0  0  0  0  0  0  0  0  0  0  0  0
    2.3223    0.7487   -0.9557 C   0  0  0  0  0  0  0  0  0  0  0  0
    1.2414   -0.1261   -1.1702 C   0  0  0  0  0  0  0  0  0  0  0  0
    0.0994   -0.1355   -0.2388 C   0  0  0  0  0  0  0  0  0  0  0  0
    0.0724    0.5867    0.8462 N   0  0  0  0  0  0  0  0  0  0  0  0
   -1.1177    0.3975    1.5197 C   0  0  0  0  0  0  0  0  0  0  0  0
   -1.4760    1.0245    2.7393 C   0  0  0  0  0  0  0  0  0  0  0  0
   -2.7077    0.7391    3.2961 C   0  0  0  0  0  0  0  0  0  0  0  0
   -3.6021   -0.1560    2.6711 C   0  0  0  0  0  0  0  0  0  0  0  0
   -3.2547   -0.7779    1.4756 C   0  0  0  0  0  0  0  0  0  0  0  0
   -2.0077   -0.5053    0.9053 C   0  0  0  0  0  0  0  0  0  0  0  0
   -1.3059   -1.1145   -0.5388 S   0  0  0  0  0  0  0  0  0  0  0  0
    1.2718   -0.9803   -2.2778 C   0  0  0  0  0  0  0  0  0  0  0  0
    2.3503   -0.9629   -3.1580 C   0  0  0  0  0  0  0  0  0  0  0  0
    4.2483   -0.0700   -3.6342 H   0  0  0  0  0  0  0  0  0  0  0  0
    4.2144    1.4531   -1.6656 H   0  0  0  0  0  0  0  0  0  0  0  0
    2.3133    1.4141   -0.0983 H   0  0  0  0  0  0  0  0  0  0  0  0
   -0.7819    1.7113    3.2081 H   0  0  0  0  0  0  0  0  0  0  0  0
   -2.9913    1.2065    4.2270 H   0  0  0  0  0  0  0  0  0  0  0  0
   -4.5604   -0.3548    3.1265 H   0  0  0  0  0  0  0  0  0  0  0  0
   -3.9348   -1.4652    0.9812 H   0  0  0  0  0  0  0  0  0  0  0  0
    0.4500   -1.6774   -2.4630 H   0  0  0  0  0  0  0  0  0  0  0  0
    2.3533   -1.6362   -4.0076 H   0  0  0  0  0  0  0  0  0  0  0  0
  1  2  2  0
  2  3  1  0
  3  4  2  0
  4  5  1  0
  5  6  2  0
  6  7  1  0
  7  8  2  0
  8  9  1  0
  9 10  2  0
 10 11  1  0
 11 12  2  0
 12 13  1  0
  4 14  1  0
 14 15  2  0
 15  1  1  0
 13  5  1  0
 12  7  1  0
  1 16  1  0
  2 17  1  0
  3 18  1  0
  8 19  1  0
  9 20  1  0
 10 21  1  0
 11 22  1  0
 14 23  1  0
 15 24  1  0
M  END
$$$$

     RDKit          3D

 24 26  0  0  0  0  0  0  0  0999 V2000
   -2.8694   -3.1309    1.5163 C   0  0  0  0  0  0  0  0  0  0  0  0
   -1.9470   -3.3795    0.4939 C   0  0  0  0  0  0  0  0  0  0  0  0
   -1.0943   -2.3753    0.0577 C   0  0  0  0  0  0  0  0  0  0  0  0
   -1.1552   -1.0927    0.6357 C   0  0  0  0  0  0  0  0  0  0  0  0
   -0.2419   -0.0296    0.1805 C   0  0  0  0  0  0  0  0  0  0  0  0
    0.6636   -0.2383   -0.7297 N   0  0  0  0  0  0  0  0  0  0  0  0
    1.3934    0.9109   -0.9607 C   0  0  0  0  0  0  0  0  0  0  0  0
    2.4644    1.0284   -1.8798 C   0  0  0  0  0  0  0  0  0  0  0  0
    3.1043    2.2473   -2.0062 C   0  0  0  0  0  0  0  0  0  0  0  0
    2.7038    3.3635   -1.2425 C   0  0  0  0  0  0  0  0  0  0  0  0
    1.6580    3.2535   -0.3310 C   0  0  0  0  0  0  0  0  0  0  0  0
    1.0061    2.0232   -0.1882 C   0  0  0  0  0  0  0  0  0  0  0  0
   -0.3004    1.5829    0.8373 S   0  0  0  0  0  0  0  0  0  0  0  0
   -2.0883   -0.8494    1.6459 C   0  0  0  0  0  0  0  0  0  0  0  0
   -2.9341   -1.8638    2.0875 C   0  0  0  0  0  0  0  0  0  0  0  0
   -3.5284   -3.9184    1.8603 H   0  0  0  0  0  0  0  0  0  0  0  0
   -1.8933   -4.3627    0.0375 H   0  0  0  0  0  0  0  0  0  0  0  0
   -0.3820   -2.5738   -0.7364 H   0  0  0  0  0  0  0  0  0  0  0  0
    2.7654    0.1656   -2.4600 H   0  0  0  0  0  0  0  0  0  0  0  0
    3.9224    2.3462   -2.7035 H   0  0  0  0  0  0  0  0  0  0  0  0
    3.2164    4.3064   -1.3665 H   0  0  0  0  0  0  0  0  0  0  0  0
    1.3417    4.1049    0.2643 H   0  0  0  0  0  0  0  0  0  0  0  0
   -2.1638    0.1394    2.1054 H   0  0  0  0  0  0  0  0  0  0  0  0
   -3.6415   -1.6579    2.8822 H   0  0  0  0  0  0  0  0  0  0  0  0
  1  2  2  0
  2  3  1  0
  3  4  2  0
  4  5  1  0
  5  6  2  0
  6  7  1  0
  7  8  2  0
  8  9  1  0
  9 10  2  0
 10 11  1  0
 11 12  2  0
 12 13  1  0
  4 14  1  0
 14 15  2  0
 15  1  1  0
 13  5  1  0
 12  7  1  0
  1 16  1  0
  2 17  1  0
  3 18  1  0
  8 19  1  0
  9 20  1  0
 10 21  1  0
 11 22  1  0
 14 23  1  0
 15 24  1  0
M  END
$$$$

     RDKit          3D

 24 26  0  0  0  0  0  0  0  0999 V2000
    2.9444    0.2096    3.4117 C   0  0  0  0  0  0  0  0  0  0  0  0
    1.7296    0.9065    3.4161 C   0  0  0  0  0  0  0  0  0  0  0  0
    0.8573    0.8077    2.3418 C   0  0  0  0  0  0  0  0  0  0  0  0
    1.1887    0.0093    1.2318 C   0  0  0  0  0  0  0  0  0  0  0  0
    0.2623   -0.0993    0.0914 C   0  0  0  0  0  0  0  0  0  0  0  0
   -0.8644    0.5517    0.0406 N   0  0  0  0  0  0  0  0  0  0  0  0
   -1.5336    0.2673   -1.1337 C   0  0  0  0  0  0  0  0  0  0  0  0
   -2.7904    0.8046   -1.5053 C   0  0  0  0  0  0  0  0  0  0  0  0
   -3.3434    0.4288   -2.7150 C   0  0  0  0  0  0  0  0  0  0  0  0
   -2.6768   -0.4727   -3.5727 C   0  0  0  0  0  0  0  0  0  0  0  0
   -1.4432   -1.0068   -3.2125 C   0  0  0  0  0  0  0  0  0  0  0  0
   -0.8734   -0.6380   -1.9883 C   0  0  0  0  0  0  0  0  0  0  0  0
    0.6154   -1.1188   -1.2751 S   0  0  0  0  0  0  0  0  0  0  0  0
    2.4060   -0.6772    1.2321 C   0  0  0  0  0  0  0  0  0  0  0  0
    3.2762   -0.5796    2.3148 C   0  0  0  0  0  0  0  0  0  0  0  0
    3.6205    0.2876    4.2525 H   0  0  0  0  0  0  0  0  0  0  0  0
    1.4620    1.5251    4.2659 H   0  0  0  0  0  0  0  0  0  0  0  0
   -0.0823    1.3518    2.3503 H   0  0  0  0  0  0  0  0  0  0  0  0
   -3.2943    1.4924   -0.8369 H   0  0  0  0  0  0  0  0  0  0  0  0
   -4.3022    0.8302   -3.0076 H   0  0  0  0  0  0  0  0  0  0  0  0
   -3.1332   -0.7490   -4.5132 H   0  0  0  0  0  0  0  0  0  0  0  0
   -0.9226   -1.7041   -3.8631 H   0  0  0  0  0  0  0  0  0  0  0  0
    2.6868   -1.3009    0.3800 H   0  0  0  0  0  0  0  0  0  0  0  0
    4.2107   -1.1263    2.2943 H   0  0  0  0  0  0  0  0  0  0  0  0
  1  2  2  0
  2  3  1  0
  3  4  2  0
  4  5  1  0
  5  6  2  0
  6  7  1  0
  7  8  2  0
  8  9  1  0
  9 10  2  0
 10 11  1  0
 11 12  2  0
 12 13  1  0
  4 14  1  0
 14 15  2  0
 15  1  1  0
 13  5  1  0
 12  7  1  0
  1 16  1  0
  2 17  1  0
  3 18  1  0
  8 19  1  0
  9 20  1  0
 10 21  1  0
 11 22  1  0
 14 23  1  0
 15 24  1  0
M  END
$$$$

     RDKit          3D

 24 26  0  0  0  0  0  0  0  0999 V2000
   -1.7704   -1.2826   -3.9438 C   0  0  0  0  0  0  0  0  0  0  0  0
   -0.8548   -2.0684   -3.2326 C   0  0  0  0  0  0  0  0  0  0  0  0
   -0.3354   -1.6257   -2.0245 C   0  0  0  0  0  0  0  0  0  0  0  0
   -0.7210   -0.3760   -1.5059 C   0  0  0  0  0  0  0  0  0  0  0  0
   -0.1709    0.0946   -0.2241 C   0  0  0  0  0  0  0  0  0  0  0  0
    0.5980   -0.6459    0.5200 N   0  0  0  0  0  0  0  0  0  0  0  0
    0.9697    0.0365    1.6607 C   0  0  0  0  0  0  0  0  0  0  0  0
    1.7976   -0.4817    2.6861 C   0  0  0  0  0  0  0  0  0  0  0  0
    2.0821    0.3150    3.7792 C   0  0  0  0  0  0  0  0  0  0  0  0
    1.5672    1.6255    3.8800 C   0  0  0  0  0  0  0  0  0  0  0  0
    0.7557    2.1432    2.8750 C   0  0  0  0  0  0  0  0  0  0  0  0
    0.4523    1.3431    1.7663 C   0  0  0  0  0  0  0  0  0  0  0  0
   -0.5121    1.6892    0.3855 S   0  0  0  0  0  0  0  0  0  0  0  0
   -1.6294    0.4061   -2.2243 C   0  0  0  0  0  0  0  0  0  0  0  0
   -2.1533   -0.0462   -3.4337 C   0  0  0  0  0  0  0  0  0  0  0  0
   -2.1721   -1.6344   -4.8860 H   0  0  0  0  0  0  0  0  0  0  0  0
   -0.5500   -3.0327   -3.6255 H   0  0  0  0  0  0  0  0  0  0  0  0
    0.3759   -2.2384   -1.4775 H   0  0  0  0  0  0  0  0  0  0  0  0
    2.1849   -1.4903    2.5956 H   0  0  0  0  0  0  0  0  0  0  0  0
    2.7140   -0.0684    4.5654 H   0  0  0  0  0  0  0  0  0  0  0  0
    1.8062    2.2257    4.7468 H   0  0  0  0  0  0  0  0  0  0  0  0
    0.3597    3.1525    2.9397 H   0  0  0  0  0  0  0  0  0  0  0  0
   -1.9350    1.3849   -1.8499 H   0  0  0  0  0  0  0  0  0  0  0  0
   -2.8589    0.5744   -3.9725 H   0  0  0  0  0  0  0  0  0  0  0  0
  1  2  2  0
  2  3  1  0
  3  4  2  0
  4  5  1  0
  5  6  2  0
  6  7  1  0
  7  8  2  0
  8  9  1  0
  9 10  2  0
 10 11  1  0
 11 12  2  0
 12 13  1  0
  4 14  1  0
 14 15  2  0
 15  1  1  0
 13  5  1  0
 12  7  1  0
  1 16  1  0
  2 17  1  0
  3 18  1  0
  8 19  1  0
  9 20  1  0
 10 21  1  0
 11 22  1  0
 14 23  1  0
 15 24  1  0
M  END
$$$$

     RDKit          3D

 24 26  0  0  0  0  0  0  0  0999 V2000
    0.7269   -2.2559    3.8365 C   0  0  0  0  0  0  0  0  0  0  0  0
    0.7509   -2.8723    2.5792 C   0  0  0  0  0  0  0  0  0  0  0  0
    0.5183   -2.1320    1.4281 C   0  0  0  0  0  0  0  0  0  0  0  0
    0.2425   -0.7549    1.5159 C   0  0  0  0  0  0  0  0  0  0  0  0
    0.0023    0.0327    0.2943 C   0  0  0  0  0  0  0  0  0  0  0  0
   -0.0042   -0.5045   -0.8923 N   0  0  0  0  0  0  0  0  0  0  0  0
   -0.2426    0.4547   -1.8547 C   0  0  0  0  0  0  0  0  0  0  0  0
   -0.3190    0.2120   -3.2478 C   0  0  0  0  0  0  0  0  0  0  0  0
   -0.5668    1.2751   -4.0956 C   0  0  0  0  0  0  0  0  0  0  0  0
   -0.7350    2.5834   -3.5944 C   0  0  0  0  0  0  0  0  0  0  0  0
   -0.6570    2.8301   -2.2264 C   0  0  0  0  0  0  0  0  0  0  0  0
   -0.4114    1.7626   -1.3575 C   0  0  0  0  0  0  0  0  0  0  0  0
   -0.2813    1.7494    0.3547 S   0  0  0  0  0  0  0  0  0  0  0  0
    0.2064   -0.1502    2.7753 C   0  0  0  0  0  0  0  0  0  0  0  0
    0.4577   -0.8932    3.9264 C   0  0  0  0  0  0  0  0  0  0  0  0
    0.9152   -2.8353    4.7320 H   0  0  0  0  0  0  0  0  0  0  0  0
    0.9588   -3.9345    2.4969 H   0  0  0  0  0  0  0  0  0  0  0  0
    0.5424   -2.6151    0.4556 H   0  0  0  0  0  0  0  0  0  0  0  0
   -0.1857   -0.7958   -3.6222 H   0  0  0  0  0  0  0  0  0  0  0  0
   -0.6353    1.0987   -5.1585 H   0  0  0  0  0  0  0  0  0  0  0  0
   -0.9254    3.3963   -4.2804 H   0  0  0  0  0  0  0  0  0  0  0  0
   -0.7834    3.8328   -1.8282 H   0  0  0  0  0  0  0  0  0  0  0  0
   -0.0166    0.9155    2.8725 H   0  0  0  0  0  0  0  0  0  0  0  0
    0.4425   -0.3998    4.8906 H   0  0  0  0  0  0  0  0  0  0  0  0
  1  2  2  0
  2  3  1  0
  3  4  2  0
  4  5  1  0
  5  6  2  0
  6  7  1  0
  7  8  2  0
  8  9  1  0
  9 10  2  0
 10 11  1  0
 11 12  2  0
 12 13  1  0
  4 14  1  0
 14 15  2  0
 15  1  1  0
 13  5  1  0
 12  7  1  0
  1 16  1  0
  2 17  1  0
  3 18  1  0
  8 19  1  0
  9 20  1  0
 10 21  1  0
 11 22  1  0
 14 23  1  0
 15 24  1  0
M  END
$$$$

     RDKit          3D

 24 26  0  0  0  0  0  0  0  0999 V2000
    1.3334    4.2391   -0.7543 C   0  0  0  0  0  0  0  0  0  0  0  0
    0.9255    3.3771   -1.7789 C   0  0  0  0  0  0  0  0  0  0  0  0
    0.5289    2.0802   -1.4896 C   0  0  0  0  0  0  0  0  0  0  0  0
    0.5358    1.6175   -0.1602 C   0  0  0  0  0  0  0  0  0  0  0  0
    0.1195    0.2385    0.1443 C   0  0  0  0  0  0  0  0  0  0  0  0
   -0.3439   -0.5636   -0.7715 N   0  0  0  0  0  0  0  0  0  0  0  0
   -0.6649   -1.7884   -0.2225 C   0  0  0  0  0  0  0  0  0  0  0  0
   -1.2052   -2.8848   -0.9392 C   0  0  0  0  0  0  0  0  0  0  0  0
   -1.4806   -4.0542   -0.2570 C   0  0  0  0  0  0  0  0  0  0  0  0
   -1.2310   -4.1663    1.1277 C   0  0  0  0  0  0  0  0  0  0  0  0
   -0.7024   -3.0921    1.8387 C   0  0  0  0  0  0  0  0  0  0  0  0
   -0.4245   -1.8990    1.1618 C   0  0  0  0  0  0  0  0  0  0  0  0
    0.2181   -0.4182    1.7539 S   0  0  0  0  0  0  0  0  0  0  0  0
    0.9404    2.4852    0.8571 C   0  0  0  0  0  0  0  0  0  0  0  0
    1.3332    3.7874    0.5622 C   0  0  0  0  0  0  0  0  0  0  0  0
    1.6477    5.2482   -0.9853 H   0  0  0  0  0  0  0  0  0  0  0  0
    0.9139    3.7218   -2.8085 H   0  0  0  0  0  0  0  0  0  0  0  0
    0.2163    1.4166   -2.2882 H   0  0  0  0  0  0  0  0  0  0  0  0
   -1.3925   -2.7859   -2.0023 H   0  0  0  0  0  0  0  0  0  0  0  0
   -1.8940   -4.8960   -0.7930 H   0  0  0  0  0  0  0  0  0  0  0  0
   -1.4556   -5.0929    1.6360 H   0  0  0  0  0  0  0  0  0  0  0  0
   -0.5046   -3.1690    2.9037 H   0  0  0  0  0  0  0  0  0  0  0  0
    0.9457    2.1541    1.8978 H   0  0  0  0  0  0  0  0  0  0  0  0
    1.6409    4.4448    1.3674 H   0  0  0  0  0  0  0  0  0  0  0  0
  1  2  2  0
  2  3  1  0
  3  4  2  0
  4  5  1  0
  5  6  2  0
  6  7  1  0
  7  8  2  0
  8  9  1  0
  9 10  2  0
 10 11  1  0
 11 12  2  0
 12 13  1  0
  4 14  1  0
 14 15  2  0
 15  1  1  0
 13  5  1  0
 12  7  1  0
  1 16  1  0
  2 17  1  0
  3 18  1  0
  8 19  1  0
  9 20  1  0
 10 21  1  0
 11 22  1  0
 14 23  1  0
 15 24  1  0
M  END
$$$$

     RDKit          3D

 24 26  0  0  0  0  0  0  0  0999 V2000
   -4.2789    0.7844   -1.1907 C   0  0  0  0  0  0  0  0  0  0  0  0
   -3.8404   -0.4461   -0.6873 C   0  0  0  0  0  0  0  0  0  0  0  0
   -2.5112   -0.6313   -0.3369 C   0  0  0  0  0  0  0  0  0  0  0  0
   -1.5850    0.4156   -0.4926 C   0  0  0  0  0  0  0  0  0  0  0  0
   -0.1749    0.2115   -0.1203 C   0  0  0  0  0  0  0  0  0  0  0  0
    0.2572   -0.9052    0.3930 N   0  0  0  0  0  0  0  0  0  0  0  0
    1.6114   -0.8273    0.6497 C   0  0  0  0  0  0  0  0  0  0  0  0
    2.3944   -1.8638    1.2142 C   0  0  0  0  0  0  0  0  0  0  0  0
    3.7442   -1.6446    1.4139 C   0  0  0  0  0  0  0  0  0  0  0  0
    4.3420   -0.4157    1.0629 C   0  0  0  0  0  0  0  0  0  0  0  0
    3.5766    0.6098    0.5159 C   0  0  0  0  0  0  0  0  0  0  0  0
    2.2077    0.4034    0.3115 C   0  0  0  0  0  0  0  0  0  0  0  0
    1.0178    1.4581   -0.3418 S   0  0  0  0  0  0  0  0  0  0  0  0
   -2.0293    1.6397   -1.0029 C   0  0  0  0  0  0  0  0  0  0  0  0
   -3.3662    1.8223   -1.3475 C   0  0  0  0  0  0  0  0  0  0  0  0
   -5.3190    0.9272   -1.4588 H   0  0  0  0  0  0  0  0  0  0  0  0
   -4.5424   -1.2627   -0.5633 H   0  0  0  0  0  0  0  0  0  0  0  0
   -2.1794   -1.5897    0.0514 H   0  0  0  0  0  0  0  0  0  0  0  0
    1.9236   -2.8018    1.4813 H   0  0  0  0  0  0  0  0  0  0  0  0
    4.3503   -2.4245    1.8486 H   0  0  0  0  0  0  0  0  0  0  0  0
    5.4011   -0.2741    1.2232 H   0  0  0  0  0  0  0  0  0  0  0  0
    4.0257    1.5629    0.2530 H   0  0  0  0  0  0  0  0  0  0  0  0
   -1.3346    2.4723   -1.1371 H   0  0  0  0  0  0  0  0  0  0  0  0
   -3.6907    2.7796   -1.7394 H   0  0  0  0  0  0  0  0  0  0  0  0
  1  2  2  0
  2  3  1  0
  3  4  2  0
  4  5  1  0
  5  6  2  0
  6  7  1  0
  7  8  2  0
  8  9  1  0
  9 10  2  0
 10 11  1  0
 11 12  2  0
 12 13  1  0
  4 14  1  0
 14 15  2  0
 15  1  1  0
 13  5  1  0
 12  7  1  0
  1 16  1  0
  2 17  1  0
  3 18  1  0
  8 19  1  0
  9 20  1  0
 10 21  1  0
 11 22  1  0
 14 23  1  0
 15 24  1  0
M  END
$$$$

     RDKit          3D

 24 26  0  0  0  0  0  0  0  0999 V2000
    3.6536    1.1881   -2.3617 C   0  0  0  0  0  0  0  0  0  0  0  0
    3.6740    0.1796   -1.3913 C   0  0  0  0  0  0  0  0  0  0  0  0
    2.5221   -0.1435   -0.6897 C   0  0  0  0  0  0  0  0  0  0  0  0
    1.3199    0.5433   -0.9433 C   0  0  0  0  0  0  0  0  0  0  0  0
    0.0951    0.1933   -0.2035 C   0  0  0  0  0  0  0  0  0  0  0  0
    0.0640   -0.7567    0.6874 N   0  0  0  0  0  0  0  0  0  0  0  0
   -1.2022   -0.8747    1.2244 C   0  0  0  0  0  0  0  0  0  0  0  0
   -1.5817   -1.8107    2.2170 C   0  0  0  0  0  0  0  0  0  0  0  0
   -2.8916   -1.8146    2.6597 C   0  0  0  0  0  0  0  0  0  0  0  0
   -3.8386   -0.9037    2.1425 C   0  0  0  0  0  0  0  0  0  0  0  0
   -3.4710    0.0196    1.1672 C   0  0  0  0  0  0  0  0  0  0  0  0
   -2.1510    0.0296    0.7065 C   0  0  0  0  0  0  0  0  0  0  0  0
   -1.4066    1.0321   -0.4733 S   0  0  0  0  0  0  0  0  0  0  0  0
    1.3116    1.5556   -1.9069 C   0  0  0  0  0  0  0  0  0  0  0  0
    2.4678    1.8709   -2.6135 C   0  0  0  0  0  0  0  0  0  0  0  0
    4.5523    1.4344   -2.9103 H   0  0  0  0  0  0  0  0  0  0  0  0
    4.5926   -0.3574   -1.1847 H   0  0  0  0  0  0  0  0  0  0  0  0
    2.5444   -0.9264    0.0620 H   0  0  0  0  0  0  0  0  0  0  0  0
   -0.8443   -2.5025    2.6067 H   0  0  0  0  0  0  0  0  0  0  0  0
   -3.1948   -2.5235    3.4157 H   0  0  0  0  0  0  0  0  0  0  0  0
   -4.8550   -0.9275    2.5076 H   0  0  0  0  0  0  0  0  0  0  0  0
   -4.1905    0.7265    0.7636 H   0  0  0  0  0  0  0  0  0  0  0  0
    0.3964    2.1126   -2.1216 H   0  0  0  0  0  0  0  0  0  0  0  0
    2.4335    2.6556   -3.3604 H   0  0  0  0  0  0  0  0  0  0  0  0
  1  2  2  0
  2  3  1  0
  3  4  2  0
  4  5  1  0
  5  6  2  0
  6  7  1  0
  7  8  2  0
  8  9  1  0
  9 10  2  0
 10 11  1  0
 11 12  2  0
 12 13  1  0
  4 14  1  0
 14 15  2  0
 15  1  1  0
 13  5  1  0
 12  7  1  0
  1 16  1  0
  2 17  1  0
  3 18  1  0
  8 19  1  0
  9 20  1  0
 10 21  1  0
 11 22  1  0
 14 23  1  0
 15 24  1  0
M  END
$$$$

     RDKit          3D

 24 26  0  0  0  0  0  0  0  0999 V2000
    1.0941   -1.1935    4.2072 C   0  0  0  0  0  0  0  0  0  0  0  0
   -0.1101   -0.5129    4.0153 C   0  0  0  0  0  0  0  0  0  0  0  0
   -0.4971   -0.1224    2.7442 C   0  0  0  0  0  0  0  0  0  0  0  0
    0.3125   -0.4005    1.6336 C   0  0  0  0  0  0  0  0  0  0  0  0
   -0.0943    0.0143    0.2792 C   0  0  0  0  0  0  0  0  0  0  0  0
    0.6189   -0.2573   -0.7744 N   0  0  0  0  0  0  0  0  0  0  0  0
    0.0122    0.2440   -1.9098 C   0  0  0  0  0  0  0  0  0  0  0  0
    0.5206    0.1320   -3.2267 C   0  0  0  0  0  0  0  0  0  0  0  0
   -0.1958    0.6941   -4.2656 C   0  0  0  0  0  0  0  0  0  0  0  0
   -1.4174    1.3632   -4.0330 C   0  0  0  0  0  0  0  0  0  0  0  0
   -1.9267    1.4721   -2.7431 C   0  0  0  0  0  0  0  0  0  0  0  0
   -1.2058    0.9171   -1.6810 C   0  0  0  0  0  0  0  0  0  0  0  0
   -1.5683    0.9000   -0.0025 S   0  0  0  0  0  0  0  0  0  0  0  0
    1.5224   -1.0873    1.8278 C   0  0  0  0  0  0  0  0  0  0  0  0
    1.9074   -1.4767    3.1094 C   0  0  0  0  0  0  0  0  0  0  0  0
    1.3932   -1.4977    5.2020 H   0  0  0  0  0  0  0  0  0  0  0  0
   -0.7501   -0.2875    4.8600 H   0  0  0  0  0  0  0  0  0  0  0  0
   -1.4422    0.4112    2.6126 H   0  0  0  0  0  0  0  0  0  0  0  0
    1.4585   -0.3851   -3.3945 H   0  0  0  0  0  0  0  0  0  0  0  0
    0.1849    0.6206   -5.2732 H   0  0  0  0  0  0  0  0  0  0  0  0
   -1.9549    1.7944   -4.8645 H   0  0  0  0  0  0  0  0  0  0  0  0
   -2.8681    1.9805   -2.5523 H   0  0  0  0  0  0  0  0  0  0  0  0
    2.1589   -1.3227    0.9826 H   0  0  0  0  0  0  0  0  0  0  0  0
    2.8471   -2.0000    3.2465 H   0  0  0  0  0  0  0  0  0  0  0  0
  1  2  2  0
  2  3  1  0
  3  4  2  0
  4  5  1  0
  5  6  2  0
  6  7  1  0
  7  8  2  0
  8  9  1  0
  9 10  2  0
 10 11  1  0
 11 12  2  0
 12 13  1  0
  4 14  1  0
 14 15  2  0
 15  1  1  0
 13  5  1  0
 12  7  1  0
  1 16  1  0
  2 17  1  0
  3 18  1  0
  8 19  1  0
  9 20  1  0
 10 21  1  0
 11 22  1  0
 14 23  1  0
 15 24  1  0
M  END
$$$$
