
     RDKit          3D

 27 29  0  0  0  0  0  0  0  0999 V2000
   -0.5470   -1.1603    5.1343 C   0  0  0  0  0  0  0  0  0  0  0  0
   -0.3498   -0.7929    3.6994 C   0  0  0  0  0  0  0  0  0  0  0  0
   -0.5347   -1.7374    2.6764 C   0  0  0  0  0  0  0  0  0  0  0  0
   -0.3820   -1.4000    1.3475 C   0  0  0  0  0  0  0  0  0  0  0  0
   -0.0380   -0.0895    0.9802 C   0  0  0  0  0  0  0  0  0  0  0  0
    0.1222    0.2753   -0.4377 C   0  0  0  0  0  0  0  0  0  0  0  0
   -0.1445   -0.5466   -1.3980 N   0  0  0  0  0  0  0  0  0  0  0  0
    0.0838    0.0498   -2.6265 C   0  0  0  0  0  0  0  0  0  0  0  0
   -0.1218   -0.5687   -3.8832 C   0  0  0  0  0  0  0  0  0  0  0  0
    0.1476    0.1480   -5.0311 C   0  0  0  0  0  0  0  0  0  0  0  0
    0.6222    1.4704   -4.9667 C   0  0  0  0  0  0  0  0  0  0  0  0
    0.8271    2.0839   -3.7384 C   0  0  0  0  0  0  0  0  0  0  0  0
    0.5534    1.3655   -2.5675 C   0  0  0  0  0  0  0  0  0  0  0  0
    0.6815    1.8527   -0.9116 S   0  0  0  0  0  0  0  0  0  0  0  0
    0.1475    0.8558    1.9905 C   0  0  0  0  0  0  0  0  0  0  0  0
   -0.0021    0.5078    3.3207 C   0  0  0  0  0  0  0  0  0  0  0  0
    0.0484   -0.5238    5.7891 H   0  0  0  0  0  0  0  0  0  0  0  0
   -1.5949   -1.0351    5.4117 H   0  0  0  0  0  0  0  0  0  0  0  0
   -0.2812   -2.1986    5.3178 H   0  0  0  0  0  0  0  0  0  0  0  0
   -0.7999   -2.7549    2.9466 H   0  0  0  0  0  0  0  0  0  0  0  0
   -0.5270   -2.1466    0.5789 H   0  0  0  0  0  0  0  0  0  0  0  0
   -0.4873   -1.5866   -3.9172 H   0  0  0  0  0  0  0  0  0  0  0  0
   -0.0114   -0.3141   -5.9880 H   0  0  0  0  0  0  0  0  0  0  0  0
    0.8285    2.0070   -5.8757 H   0  0  0  0  0  0  0  0  0  0  0  0
    1.1920    3.1041   -3.6749 H   0  0  0  0  0  0  0  0  0  0  0  0
    0.4177    1.8784    1.7355 H   0  0  0  0  0  0  0  0  0  0  0  0
    0.1496    1.2565    4.0880 H   0  0  0  0  0  0  0  0  0  0  0  0
  1  2  1  0
  2  3  2  0
  3  4  1  0
  4  5  2  0
  5  6  1  0
  6  7  2  0
  7  8  1  0
  8  9  2  0
  9 10  1  0
 10 11  2  0
 11 12  1  0
 12 13  2  0
 13 14  1  0
  5 15  1  0
 15 16  2  0
 16  2  1  0
 14  6  1  0
 13  8  1  0
  1 17  1  0
  1 18  1  0
  1 19  1  0
  3 20  1  0
  4 21  1  0
  9 22  1  0
 10 23  1  0
 11 24  1  0
 12 25  1  0
 15 26  1  0
 16 27  1  0
M  END
$$$$

     RDKit          3D

 27 29  0  0  0  0  0  0  0  0999 V2000
    3.8780   -1.3657   -3.3350 C   0  0  0  0  0  0  0  0  0  0  0  0
    2.8161   -0.9758   -2.3564 C   0  0  0  0  0  0  0  0  0  0  0  0
    1.4878   -0.7662   -2.7648 C   0  0  0  0  0  0  0  0  0  0  0  0
    0.5023   -0.4173   -1.8654 C   0  0  0  0  0  0  0  0  0  0  0  0
    0.8018   -0.2618   -0.5028 C   0  0  0  0  0  0  0  0  0  0  0  0
   -0.2454    0.1236    0.4567 C   0  0  0  0  0  0  0  0  0  0  0  0
   -1.4647    0.3518    0.0936 N   0  0  0  0  0  0  0  0  0  0  0  0
   -2.2426    0.6899    1.1874 C   0  0  0  0  0  0  0  0  0  0  0  0
   -3.6222    1.0006    1.1403 C   0  0  0  0  0  0  0  0  0  0  0  0
   -4.2691    1.3187    2.3167 C   0  0  0  0  0  0  0  0  0  0  0  0
   -3.5822    1.3356    3.5449 C   0  0  0  0  0  0  0  0  0  0  0  0
   -2.2274    1.0396    3.5965 C   0  0  0  0  0  0  0  0  0  0  0  0
   -1.5619    0.7176    2.4093 C   0  0  0  0  0  0  0  0  0  0  0  0
    0.0950    0.2991    2.1534 S   0  0  0  0  0  0  0  0  0  0  0  0
    2.1155   -0.4833   -0.0856 C   0  0  0  0  0  0  0  0  0  0  0  0
    3.0991   -0.8297   -0.9936 C   0  0  0  0  0  0  0  0  0  0  0  0
    3.9347   -2.4512   -3.4126 H   0  0  0  0  0  0  0  0  0  0  0  0
    3.6679   -0.9738   -4.3290 H   0  0  0  0  0  0  0  0  0  0  0  0
    4.8576   -1.0041   -3.0189 H   0  0  0  0  0  0  0  0  0  0  0  0
    1.2379   -0.8808   -3.8158 H   0  0  0  0  0  0  0  0  0  0  0  0
   -0.5126   -0.2657   -2.2059 H   0  0  0  0  0  0  0  0  0  0  0  0
   -4.1401    0.9855    0.1896 H   0  0  0  0  0  0  0  0  0  0  0  0
   -5.3167    1.5546    2.2917 H   0  0  0  0  0  0  0  0  0  0  0  0
   -4.1118    1.5840    4.4476 H   0  0  0  0  0  0  0  0  0  0  0  0
   -1.6857    1.0503    4.5368 H   0  0  0  0  0  0  0  0  0  0  0  0
    2.3775   -0.3838    0.9649 H   0  0  0  0  0  0  0  0  0  0  0  0
    4.1111   -0.9918   -0.6436 H   0  0  0  0  0  0  0  0  0  0  0  0
  1  2  1  0
  2  3  2  0
  3  4  1  0
  4  5  2  0
  5  6  1  0
  6  7  2  0
  7  8  1  0
  8  9  2  0
  9 10  1  0
 10 11  2  0
 11 12  1  0
 12 13  2  0
 13 14  1  0
  5 15  1  0
 15 16  2  0
 16  2  1  0
 14  6  1  0
 13  8  1  0
  1 17  1  0
  1 18  1  0
  1 19  1  0
  3 20  1  0
  4 21  1  0
  9 22  1  0
 10 23  1  0
 11 24  1  0
 12 25  1  0
 15 26  1  0
 16 27  1  0
M  END
$$$$

     RDKit          3D

 27 29  0  0  0  0  0  0  0  0999 V2000
    1.1575   -2.7584    4.3649 C   0  0  0  0  0  0  0  0  0  0  0  0
    0.8756   -2.0098    3.1015 C   0  0  0  0  0  0  0  0  0  0  0  0
   -0.3761   -1.4089    2.8818 C   0  0  0  0  0  0  0  0  0  0  0  0
   -0.6381   -0.6883    1.7358 C   0  0  0  0  0  0  0  0  0  0  0  0
    0.3468   -0.5388    0.7471 C   0  0  0  0  0  0  0  0  0  0  0  0
    0.0641    0.2272   -0.4772 C   0  0  0  0  0  0  0  0  0  0  0  0
   -1.0818    0.7853   -0.6936 N   0  0  0  0  0  0  0  0  0  0  0  0
   -1.0792    1.4390   -1.9140 C   0  0  0  0  0  0  0  0  0  0  0  0
   -2.1746    2.1506   -2.4601 C   0  0  0  0  0  0  0  0  0  0  0  0
   -2.0271    2.7520   -3.6943 C   0  0  0  0  0  0  0  0  0  0  0  0
   -0.8154    2.6671   -4.4042 C   0  0  0  0  0  0  0  0  0  0  0  0
    0.2630    1.9712   -3.8749 C   0  0  0  0  0  0  0  0  0  0  0  0
    0.1224    1.3547   -2.6264 C   0  0  0  0  0  0  0  0  0  0  0  0
    1.2684    0.4333   -1.7147 S   0  0  0  0  0  0  0  0  0  0  0  0
    1.5914   -1.1357    0.9531 C   0  0  0  0  0  0  0  0  0  0  0  0
    1.8484   -1.8562    2.1068 C   0  0  0  0  0  0  0  0  0  0  0  0
    1.9493   -3.4934    4.2198 H   0  0  0  0  0  0  0  0  0  0  0  0
    1.4787   -2.0702    5.1466 H   0  0  0  0  0  0  0  0  0  0  0  0
    0.2655   -3.2691    4.7284 H   0  0  0  0  0  0  0  0  0  0  0  0
   -1.1505   -1.5217    3.6333 H   0  0  0  0  0  0  0  0  0  0  0  0
   -1.6064   -0.2309    1.5910 H   0  0  0  0  0  0  0  0  0  0  0  0
   -3.1014    2.2122   -1.9044 H   0  0  0  0  0  0  0  0  0  0  0  0
   -2.8543    3.2919   -4.1157 H   0  0  0  0  0  0  0  0  0  0  0  0
   -0.7252    3.1452   -5.3640 H   0  0  0  0  0  0  0  0  0  0  0  0
    1.2040    1.9022   -4.4123 H   0  0  0  0  0  0  0  0  0  0  0  0
    2.3736   -1.0380    0.2035 H   0  0  0  0  0  0  0  0  0  0  0  0
    2.8214   -2.3123    2.2424 H   0  0  0  0  0  0  0  0  0  0  0  0
  1  2  1  0
  2  3  2  0
  3  4  1  0
  4  5  2  0
  5  6  1  0
  6  7  2  0
  7  8  1  0
  8  9  2  0
  9 10  1  0
 10 11  2  0
 11 12  1  0
 12 13  2  0
 13 14  1  0
  5 15  1  0
 15 16  2  0
 16  2  1  0
 14  6  1  0
 13  8  1  0
  1 17  1  0
  1 18  1  0
  1 19  1  0
  3 20  1  0
  4 21  1  0
  9 22  1  0
 10 23  1  0
 11 24  1  0
 12 25  1  0
 15 26  1  0
 16 27  1  0
M  END
$$$$

     RDKit          3D

 27 29  0  0  0  0  0  0  0  0999 V2000
    4.5346    2.6465    0.6594 C   0  0  0  0  0  0  0  0  0  0  0  0
    3.2215    1.9575    0.4682 C   0  0  0  0  0  0  0  0  0  0  0  0
    3.1105    0.8105   -0.3356 C   0  0  0  0  0  0  0  0  0  0  0  0
    1.9105    0.1481   -0.4843 C   0  0  0  0  0  0  0  0  0  0  0  0
    0.7559    0.6082    0.1663 C   0  0  0  0  0  0  0  0  0  0  0  0
   -0.5237   -0.1038    0.0119 C   0  0  0  0  0  0  0  0  0  0  0  0
   -0.6124   -1.2425   -0.5926 N   0  0  0  0  0  0  0  0  0  0  0  0
   -1.9210   -1.6951   -0.5856 C   0  0  0  0  0  0  0  0  0  0  0  0
   -2.3631   -2.9140   -1.1510 C   0  0  0  0  0  0  0  0  0  0  0  0
   -3.7030   -3.2363   -1.0719 C   0  0  0  0  0  0  0  0  0  0  0  0
   -4.6206   -2.3756   -0.4419 C   0  0  0  0  0  0  0  0  0  0  0  0
   -4.1934   -1.1782    0.1170 C   0  0  0  0  0  0  0  0  0  0  0  0
   -2.8374   -0.8434    0.0404 C   0  0  0  0  0  0  0  0  0  0  0  0
   -2.0056    0.5482    0.6439 S   0  0  0  0  0  0  0  0  0  0  0  0
    0.8546    1.7497    0.9639 C   0  0  0  0  0  0  0  0  0  0  0  0
    2.0629    2.4083    1.1092 C   0  0  0  0  0  0  0  0  0  0  0  0
    4.3986    3.7062    0.8807 H   0  0  0  0  0  0  0  0  0  0  0  0
    5.0716    2.1978    1.4968 H   0  0  0  0  0  0  0  0  0  0  0  0
    5.1652    2.5512   -0.2231 H   0  0  0  0  0  0  0  0  0  0  0  0
    3.9931    0.4441   -0.8508 H   0  0  0  0  0  0  0  0  0  0  0  0
    1.8514   -0.7351   -1.1062 H   0  0  0  0  0  0  0  0  0  0  0  0
   -1.6449   -3.5645   -1.6349 H   0  0  0  0  0  0  0  0  0  0  0  0
   -4.0450   -4.1603   -1.5003 H   0  0  0  0  0  0  0  0  0  0  0  0
   -5.6597   -2.6471   -0.3918 H   0  0  0  0  0  0  0  0  0  0  0  0
   -4.8919   -0.5050    0.6041 H   0  0  0  0  0  0  0  0  0  0  0  0
   -0.0232    2.1306    1.4796 H   0  0  0  0  0  0  0  0  0  0  0  0
    2.1143    3.2940    1.7285 H   0  0  0  0  0  0  0  0  0  0  0  0
  1  2  1  0
  2  3  2  0
  3  4  1  0
  4  5  2  0
  5  6  1  0
  6  7  2  0
  7  8  1  0
  8  9  2  0
  9 10  1  0
 10 11  2  0
 11 12  1  0
 12 13  2  0
 13 14  1  0
  5 15  1  0
 15 16  2  0
 16  2  1  0
 14  6  1  0
 13  8  1  0
  1 17  1  0
  1 18  1  0
  1 19  1  0
  3 20  1  0
  4 21  1  0
  9 22  1  0
 10 23  1  0
 11 24  1  0
 12 25  1  0
 15 26  1  0
 16 27  1  0
M  END
$$$$

     RDKit          3D

 27 29  0  0  0  0  0  0  0  0999 V2000
    3.9898    3.3858    0.7800 C   0  0  0  0  0  0  0  0  0  0  0  0
    2.8734    2.4049    0.6171 C   0  0  0  0  0  0  0  0  0  0  0  0
    2.7771    1.2553    1.4106 C   0  0  0  0  0  0  0  0  0  0  0  0
    1.7535    0.3472    1.2427 C   0  0  0  0  0  0  0  0  0  0  0  0
    0.7689    0.5500    0.2741 C   0  0  0  0  0  0  0  0  0  0  0  0
   -0.3222   -0.4188    0.0828 C   0  0  0  0  0  0  0  0  0  0  0  0
   -1.2365   -0.2577   -0.8150 N   0  0  0  0  0  0  0  0  0  0  0  0
   -2.1285   -1.3162   -0.7942 C   0  0  0  0  0  0  0  0  0  0  0  0
   -3.2485   -1.4552   -1.6481 C   0  0  0  0  0  0  0  0  0  0  0  0
   -4.0538   -2.5686   -1.5120 C   0  0  0  0  0  0  0  0  0  0  0  0
   -3.7735   -3.5566   -0.5490 C   0  0  0  0  0  0  0  0  0  0  0  0
   -2.6769   -3.4261    0.2918 C   0  0  0  0  0  0  0  0  0  0  0  0
   -1.8587   -2.2976    0.1649 C   0  0  0  0  0  0  0  0  0  0  0  0
   -0.4399   -1.8600    1.0516 S   0  0  0  0  0  0  0  0  0  0  0  0
    0.8431    1.7050   -0.5217 C   0  0  0  0  0  0  0  0  0  0  0  0
    1.8760    2.6097   -0.3494 C   0  0  0  0  0  0  0  0  0  0  0  0
    3.5955    4.3806    0.9873 H   0  0  0  0  0  0  0  0  0  0  0  0
    4.6607    3.1004    1.5893 H   0  0  0  0  0  0  0  0  0  0  0  0
    4.5728    3.4612   -0.1388 H   0  0  0  0  0  0  0  0  0  0  0  0
    3.5263    1.0767    2.1706 H   0  0  0  0  0  0  0  0  0  0  0  0
    1.7126   -0.5379    1.8760 H   0  0  0  0  0  0  0  0  0  0  0  0
   -3.4544   -0.6884   -2.3839 H   0  0  0  0  0  0  0  0  0  0  0  0
   -4.9069   -2.6830   -2.1565 H   0  0  0  0  0  0  0  0  0  0  0  0
   -4.4143   -4.4171   -0.4665 H   0  0  0  0  0  0  0  0  0  0  0  0
   -2.4458   -4.1795    1.0387 H   0  0  0  0  0  0  0  0  0  0  0  0
    0.0908    1.8857   -1.2741 H   0  0  0  0  0  0  0  0  0  0  0  0
    1.9195    3.5003   -0.9681 H   0  0  0  0  0  0  0  0  0  0  0  0
  1  2  1  0
  2  3  2  0
  3  4  1  0
  4  5  2  0
  5  6  1  0
  6  7  2  0
  7  8  1  0
  8  9  2  0
  9 10  1  0
 10 11  2  0
 11 12  1  0
 12 13  2  0
 13 14  1  0
  5 15  1  0
 15 16  2  0
 16  2  1  0
 14  6  1  0
 13  8  1  0
  1 17  1  0
  1 18  1  0
  1 19  1  0
  3 20  1  0
  4 21  1  0
  9 22  1  0
 10 23  1  0
 11 24  1  0
 12 25  1  0
 15 26  1  0
 16 27  1  0
M  END
$$$$

     RDKit          3D

 27 29  0  0  0  0  0  0  0  0999 V2000
    0.6064    3.5477    3.8804 C   0  0  0  0  0  0  0  0  0  0  0  0
    0.3970    2.5497    2.7870 C   0  0  0  0  0  0  0  0  0  0  0  0
    1.4730    1.9066    2.1547 C   0  0  0  0  0  0  0  0  0  0  0  0
    1.2729    0.9875    1.1443 C   0  0  0  0  0  0  0  0  0  0  0  0
   -0.0248    0.6649    0.7233 C   0  0  0  0  0  0  0  0  0  0  0  0
   -0.2386   -0.3161   -0.3517 C   0  0  0  0  0  0  0  0  0  0  0  0
    0.7425   -0.8956   -0.9638 N   0  0  0  0  0  0  0  0  0  0  0  0
    0.2657   -1.7713   -1.9246 C   0  0  0  0  0  0  0  0  0  0  0  0
    1.0706   -2.5693   -2.7739 C   0  0  0  0  0  0  0  0  0  0  0  0
    0.4514   -3.3957   -3.6901 C   0  0  0  0  0  0  0  0  0  0  0  0
   -0.9516   -3.4534   -3.7865 C   0  0  0  0  0  0  0  0  0  0  0  0
   -1.7476   -2.6727   -2.9586 C   0  0  0  0  0  0  0  0  0  0  0  0
   -1.1290   -1.8304   -2.0279 C   0  0  0  0  0  0  0  0  0  0  0  0
   -1.8368   -0.7562   -0.8710 S   0  0  0  0  0  0  0  0  0  0  0  0
   -1.1021    1.2958    1.3484 C   0  0  0  0  0  0  0  0  0  0  0  0
   -0.8940    2.2173    2.3580 C   0  0  0  0  0  0  0  0  0  0  0  0
    1.6620    3.7249    4.0749 H   0  0  0  0  0  0  0  0  0  0  0  0
    0.1402    3.1981    4.8042 H   0  0  0  0  0  0  0  0  0  0  0  0
    0.1371    4.4992    3.6268 H   0  0  0  0  0  0  0  0  0  0  0  0
    2.4837    2.1411    2.4679 H   0  0  0  0  0  0  0  0  0  0  0  0
    2.1182    0.5066    0.6706 H   0  0  0  0  0  0  0  0  0  0  0  0
    2.1505   -2.5167   -2.6938 H   0  0  0  0  0  0  0  0  0  0  0  0
    1.0546   -4.0052   -4.3394 H   0  0  0  0  0  0  0  0  0  0  0  0
   -1.4082   -4.1058   -4.5108 H   0  0  0  0  0  0  0  0  0  0  0  0
   -2.8307   -2.7108   -3.0226 H   0  0  0  0  0  0  0  0  0  0  0  0
   -2.1189    1.0673    1.0416 H   0  0  0  0  0  0  0  0  0  0  0  0
   -1.7437    2.6924    2.8325 H   0  0  0  0  0  0  0  0  0  0  0  0
  1  2  1  0
  2  3  2  0
  3  4  1  0
  4  5  2  0
  5  6  1  0
  6  7  2  0
  7  8  1  0
  8  9  2  0
  9 10  1  0
 10 11  2  0
 11 12  1  0
 12 13  2  0
 13 14  1  0
  5 15  1  0
 15 16  2  0
 16  2  1  0
 14  6  1  0
 13  8  1  0
  1 17  1  0
  1 18  1  0
  1 19  1  0
  3 20  1  0
  4 21  1  0
  9 22  1  0
 10 23  1  0
 11 24  1  0
 12 25  1  0
 15 26  1  0
 16 27  1  0
M  END
$$$$

     RDKit          3D

 27 29  0  0  0  0  0  0  0  0999 V2000
   -5.0392   -1.0179   -1.2548 C   0  0  0  0  0  0  0  0  0  0  0  0
   -3.6105   -0.7079   -0.9427 C   0  0  0  0  0  0  0  0  0  0  0  0
   -2.6216   -0.8155   -1.9318 C   0  0  0  0  0  0  0  0  0  0  0  0
   -1.2979   -0.5593   -1.6563 C   0  0  0  0  0  0  0  0  0  0  0  0
   -0.8907   -0.1798   -0.3735 C   0  0  0  0  0  0  0  0  0  0  0  0
    0.5237    0.0826   -0.0644 C   0  0  0  0  0  0  0  0  0  0  0  0
    0.9199    0.4186    1.1180 N   0  0  0  0  0  0  0  0  0  0  0  0
    2.2931    0.5933    1.1394 C   0  0  0  0  0  0  0  0  0  0  0  0
    3.0497    0.9575    2.2789 C   0  0  0  0  0  0  0  0  0  0  0  0
    4.4175    1.0932    2.1508 C   0  0  0  0  0  0  0  0  0  0  0  0
    5.0569    0.8761    0.9159 C   0  0  0  0  0  0  0  0  0  0  0  0
    4.3200    0.5221   -0.2060 C   0  0  0  0  0  0  0  0  0  0  0  0
    2.9334    0.3832   -0.0860 C   0  0  0  0  0  0  0  0  0  0  0  0
    1.7601   -0.0585   -1.2780 S   0  0  0  0  0  0  0  0  0  0  0  0
   -1.8686   -0.0529    0.6242 C   0  0  0  0  0  0  0  0  0  0  0  0
   -3.2003   -0.3125    0.3384 C   0  0  0  0  0  0  0  0  0  0  0  0
   -5.1530   -2.0805   -1.4756 H   0  0  0  0  0  0  0  0  0  0  0  0
   -5.6980   -0.7729   -0.4251 H   0  0  0  0  0  0  0  0  0  0  0  0
   -5.3675   -0.4717   -2.1407 H   0  0  0  0  0  0  0  0  0  0  0  0
   -2.9146   -1.1105   -2.9325 H   0  0  0  0  0  0  0  0  0  0  0  0
   -0.5584   -0.6519   -2.4516 H   0  0  0  0  0  0  0  0  0  0  0  0
    2.5420    1.1212    3.2201 H   0  0  0  0  0  0  0  0  0  0  0  0
    5.0021    1.3676    3.0107 H   0  0  0  0  0  0  0  0  0  0  0  0
    6.1233    0.9852    0.8428 H   0  0  0  0  0  0  0  0  0  0  0  0
    4.8000    0.3520   -1.1653 H   0  0  0  0  0  0  0  0  0  0  0  0
   -1.5820    0.2468    1.6219 H   0  0  0  0  0  0  0  0  0  0  0  0
   -3.9397   -0.2077    1.1230 H   0  0  0  0  0  0  0  0  0  0  0  0
  1  2  1  0
  2  3  2  0
  3  4  1  0
  4  5  2  0
  5  6  1  0
  6  7  2  0
  7  8  1  0
  8  9  2  0
  9 10  1  0
 10 11  2  0
 11 12  1  0
 12 13  2  0
 13 14  1  0
  5 15  1  0
 15 16  2  0
 16  2  1  0
 14  6  1  0
 13  8  1  0
  1 17  1  0
  1 18  1  0
  1 19  1  0
  3 20  1  0
  4 21  1  0
  9 22  1  0
 10 23  1  0
 11 24  1  0
 12 25  1  0
 15 26  1  0
 16 27  1  0
M  END
$$$$

     RDKit          3D

 27 29  0  0  0  0  0  0  0  0999 V2000
   -0.7223    0.0929    5.2431 C   0  0  0  0  0  0  0  0  0  0  0  0
   -0.5601    0.0696    3.7569 C   0  0  0  0  0  0  0  0  0  0  0  0
    0.7070    0.1363    3.1553 C   0  0  0  0  0  0  0  0  0  0  0  0
    0.8571    0.1038    1.7841 C   0  0  0  0  0  0  0  0  0  0  0  0
   -0.2638   -0.0039    0.9473 C   0  0  0  0  0  0  0  0  0  0  0  0
   -0.1076   -0.0368   -0.5151 C   0  0  0  0  0  0  0  0  0  0  0  0
    1.0461    0.0346   -1.0914 N   0  0  0  0  0  0  0  0  0  0  0  0
    0.9045   -0.0064   -2.4686 C   0  0  0  0  0  0  0  0  0  0  0  0
    1.9701    0.0585   -3.3982 C   0  0  0  0  0  0  0  0  0  0  0  0
    1.6791    0.0077   -4.7473 C   0  0  0  0  0  0  0  0  0  0  0  0
    0.3517   -0.1074   -5.2009 C   0  0  0  0  0  0  0  0  0  0  0  0
   -0.6994   -0.1658   -4.2959 C   0  0  0  0  0  0  0  0  0  0  0  0
   -0.4138   -0.1128   -2.9262 C   0  0  0  0  0  0  0  0  0  0  0  0
   -1.4853   -0.1716   -1.5696 S   0  0  0  0  0  0  0  0  0  0  0  0
   -1.5274   -0.0725    1.5359 C   0  0  0  0  0  0  0  0  0  0  0  0
   -1.6705   -0.0389    2.9103 C   0  0  0  0  0  0  0  0  0  0  0  0
   -0.8801   -0.9163    5.6200 H   0  0  0  0  0  0  0  0  0  0  0  0
   -1.5905    0.6892    5.5299 H   0  0  0  0  0  0  0  0  0  0  0  0
    0.1594    0.5007    5.7358 H   0  0  0  0  0  0  0  0  0  0  0  0
    1.5856    0.2184    3.7847 H   0  0  0  0  0  0  0  0  0  0  0  0
    1.8434    0.1581    1.3443 H   0  0  0  0  0  0  0  0  0  0  0  0
    2.9857    0.1523   -3.0346 H   0  0  0  0  0  0  0  0  0  0  0  0
    2.4812    0.0579   -5.4614 H   0  0  0  0  0  0  0  0  0  0  0  0
    0.1527   -0.1470   -6.2586 H   0  0  0  0  0  0  0  0  0  0  0  0
   -1.7279   -0.2528   -4.6347 H   0  0  0  0  0  0  0  0  0  0  0  0
   -2.4136   -0.1509    0.9106 H   0  0  0  0  0  0  0  0  0  0  0  0
   -2.6613   -0.0966    3.3445 H   0  0  0  0  0  0  0  0  0  0  0  0
  1  2  1  0
  2  3  2  0
  3  4  1  0
  4  5  2  0
  5  6  1  0
  6  7  2  0
  7  8  1  0
  8  9  2  0
  9 10  1  0
 10 11  2  0
 11 12  1  0
 12 13  2  0
 13 14  1  0
  5 15  1  0
 15 16  2  0
 16  2  1  0
 14  6  1  0
 13  8  1  0
  1 17  1  0
  1 18  1  0
  1 19  1  0
  3 20  1  0
  4 21  1  0
  9 22  1  0
 10 23  1  0
 11 24  1  0
 12 25  1  0
 15 26  1  0
 16 27  1  0
M  END
$$$$

     RDKit          3D

 27 29  0  0  0  0  0  0  0  0999 V2000
    0.2578   -3.5730    3.8973 C   0  0  0  0  0  0  0  0  0  0  0  0
    0.2262   -2.5628    2.7954 C   0  0  0  0  0  0  0  0  0  0  0  0
   -0.9248   -2.3550    2.0182 C   0  0  0  0  0  0  0  0  0  0  0  0
   -0.9568   -1.4058    1.0165 C   0  0  0  0  0  0  0  0  0  0  0  0
    0.1719   -0.6161    0.7468 C   0  0  0  0  0  0  0  0  0  0  0  0
    0.1411    0.3931   -0.3261 C   0  0  0  0  0  0  0  0  0  0  0  0
   -0.9135    0.6159   -1.0388 N   0  0  0  0  0  0  0  0  0  0  0  0
   -0.6650    1.6014   -1.9792 C   0  0  0  0  0  0  0  0  0  0  0  0
   -1.6023    2.0844   -2.9232 C   0  0  0  0  0  0  0  0  0  0  0  0
   -1.2068    3.0656   -3.8085 C   0  0  0  0  0  0  0  0  0  0  0  0
    0.0999    3.5880   -3.7813 C   0  0  0  0  0  0  0  0  0  0  0  0
    1.0237    3.1213   -2.8564 C   0  0  0  0  0  0  0  0  0  0  0  0
    0.6336    2.1222   -1.9586 C   0  0  0  0  0  0  0  0  0  0  0  0
    1.5432    1.3481   -0.7086 S   0  0  0  0  0  0  0  0  0  0  0  0
    1.3187   -0.8117    1.5185 C   0  0  0  0  0  0  0  0  0  0  0  0
    1.3444   -1.7675    2.5177 C   0  0  0  0  0  0  0  0  0  0  0  0
    0.1146   -3.0796    4.8593 H   0  0  0  0  0  0  0  0  0  0  0  0
    1.2215   -4.0803    3.9340 H   0  0  0  0  0  0  0  0  0  0  0  0
   -0.5262   -4.3199    3.7794 H   0  0  0  0  0  0  0  0  0  0  0  0
   -1.8054   -2.9591    2.2096 H   0  0  0  0  0  0  0  0  0  0  0  0
   -1.8536   -1.2613    0.4290 H   0  0  0  0  0  0  0  0  0  0  0  0
   -2.6041    1.6724   -2.9356 H   0  0  0  0  0  0  0  0  0  0  0  0
   -1.9118    3.4346   -4.5290 H   0  0  0  0  0  0  0  0  0  0  0  0
    0.3829    4.3516   -4.4838 H   0  0  0  0  0  0  0  0  0  0  0  0
    2.0355    3.5130   -2.8249 H   0  0  0  0  0  0  0  0  0  0  0  0
    2.2075   -0.2097    1.3347 H   0  0  0  0  0  0  0  0  0  0  0  0
    2.2479   -1.9098    3.0977 H   0  0  0  0  0  0  0  0  0  0  0  0
  1  2  1  0
  2  3  2  0
  3  4  1  0
  4  5  2  0
  5  6  1  0
  6  7  2  0
  7  8  1  0
  8  9  2  0
  9 10  1  0
 10 11  2  0
 11 12  1  0
 12 13  2  0
 13 14  1  0
  5 15  1  0
 15 16  2  0
 16  2  1  0
 14  6  1  0
 13  8  1  0
  1 17  1  0
  1 18  1  0
  1 19  1  0
  3 20  1  0
  4 21  1  0
  9 22  1  0
 10 23  1  0
 11 24  1  0
 12 25  1  0
 15 26  1  0
 16 27  1  0
M  END
$$$$

     RDKit          3D

 27 29  0  0  0  0  0  0  0  0999 V2000
    0.9023    3.4319    3.9274 C   0  0  0  0  0  0  0  0  0  0  0  0
    0.6962    2.4514    2.8170 C   0  0  0  0  0  0  0  0  0  0  0  0
   -0.5581    1.8567    2.5908 C   0  0  0  0  0  0  0  0  0  0  0  0
   -0.7601    0.9725    1.5504 C   0  0  0  0  0  0  0  0  0  0  0  0
    0.2904    0.6445    0.6800 C   0  0  0  0  0  0  0  0  0  0  0  0
    0.0781   -0.2996   -0.4277 C   0  0  0  0  0  0  0  0  0  0  0  0
   -1.0568   -0.8812   -0.6404 N   0  0  0  0  0  0  0  0  0  0  0  0
   -0.9711   -1.7194   -1.7387 C   0  0  0  0  0  0  0  0  0  0  0  0
   -2.0292   -2.5173   -2.2366 C   0  0  0  0  0  0  0  0  0  0  0  0
   -1.7986   -3.3090   -3.3430 C   0  0  0  0  0  0  0  0  0  0  0  0
   -0.5415   -3.3283   -3.9753 C   0  0  0  0  0  0  0  0  0  0  0  0
    0.5014   -2.5501   -3.4912 C   0  0  0  0  0  0  0  0  0  0  0  0
    0.2802   -1.7513   -2.3631 C   0  0  0  0  0  0  0  0  0  0  0  0
    1.3638   -0.6929   -1.5292 S   0  0  0  0  0  0  0  0  0  0  0  0
    1.5381    1.2349    0.8943 C   0  0  0  0  0  0  0  0  0  0  0  0
    1.7352    2.1154    1.9431 C   0  0  0  0  0  0  0  0  0  0  0  0
    1.9433    3.4486    4.2554 H   0  0  0  0  0  0  0  0  0  0  0  0
    0.2667    3.2001    4.7820 H   0  0  0  0  0  0  0  0  0  0  0  0
    0.6467    4.4361    3.5918 H   0  0  0  0  0  0  0  0  0  0  0  0
   -1.3807    2.1000    3.2558 H   0  0  0  0  0  0  0  0  0  0  0  0
   -1.7344    0.5242    1.3964 H   0  0  0  0  0  0  0  0  0  0  0  0
   -2.9910   -2.4923   -1.7416 H   0  0  0  0  0  0  0  0  0  0  0  0
   -2.5954   -3.9233   -3.7242 H   0  0  0  0  0  0  0  0  0  0  0  0
   -0.3891   -3.9525   -4.8382 H   0  0  0  0  0  0  0  0  0  0  0  0
    1.4756   -2.5512   -3.9705 H   0  0  0  0  0  0  0  0  0  0  0  0
    2.3730    1.0023    0.2382 H   0  0  0  0  0  0  0  0  0  0  0  0
    2.7152    2.5500    2.0970 H   0  0  0  0  0  0  0  0  0  0  0  0
  1  2  1  0
  2  3  2  0
  3  4  1  0
  4  5  2  0
  5  6  1  0
  6  7  2  0
  7  8  1  0
  8  9  2  0
  9 10  1  0
 10 11  2  0
 11 12  1  0
 12 13  2  0
 13 14  1  0
  5 15  1  0
 15 16  2  0
 16  2  1  0
 14  6  1  0
 13  8  1  0
  1 17  1  0
  1 18  1  0
  1 19  1  0
  3 20  1  0
  4 21  1  0
  9 22  1  0
 10 23  1  0
 11 24  1  0
 12 25  1  0
 15 26  1  0
 16 27  1  0
M  END
$$$$

     RDKit          3D

 27 29  0  0  0  0  0  0  0  0999 V2000
   -1.4809   -2.5244    4.4094 C   0  0  0  0  0  0  0  0  0  0  0  0
   -1.0005   -1.8207    3.1797 C   0  0  0  0  0  0  0  0  0  0  0  0
   -1.7831   -1.7810    2.0136 C   0  0  0  0  0  0  0  0  0  0  0  0
   -1.3590   -1.1104    0.8858 C   0  0  0  0  0  0  0  0  0  0  0  0
   -0.1248   -0.4425    0.8720 C   0  0  0  0  0  0  0  0  0  0  0  0
    0.3170    0.2770   -0.3341 C   0  0  0  0  0  0  0  0  0  0  0  0
   -0.4042    0.3276   -1.4070 N   0  0  0  0  0  0  0  0  0  0  0  0
    0.2324    1.0737   -2.3837 C   0  0  0  0  0  0  0  0  0  0  0  0
   -0.2821    1.3299   -3.6775 C   0  0  0  0  0  0  0  0  0  0  0  0
    0.4666    2.0945   -4.5498 C   0  0  0  0  0  0  0  0  0  0  0  0
    1.7188    2.6118   -4.1721 C   0  0  0  0  0  0  0  0  0  0  0  0
    2.2313    2.3616   -2.9067 C   0  0  0  0  0  0  0  0  0  0  0  0
    1.4799    1.5871   -2.0160 C   0  0  0  0  0  0  0  0  0  0  0  0
    1.8402    1.1153   -0.3921 S   0  0  0  0  0  0  0  0  0  0  0  0
    0.6619   -0.4789    2.0239 C   0  0  0  0  0  0  0  0  0  0  0  0
    0.2306   -1.1555    3.1520 C   0  0  0  0  0  0  0  0  0  0  0  0
   -0.6474   -2.8686    5.0210 H   0  0  0  0  0  0  0  0  0  0  0  0
   -2.1056   -3.3799    4.1564 H   0  0  0  0  0  0  0  0  0  0  0  0
   -2.0835   -1.8486    5.0170 H   0  0  0  0  0  0  0  0  0  0  0  0
   -2.7388   -2.2938    2.0036 H   0  0  0  0  0  0  0  0  0  0  0  0
   -1.9782   -1.0886   -0.0004 H   0  0  0  0  0  0  0  0  0  0  0  0
   -1.2434    0.9220   -3.9595 H   0  0  0  0  0  0  0  0  0  0  0  0
    0.0824    2.2955   -5.5327 H   0  0  0  0  0  0  0  0  0  0  0  0
    2.2846    3.2006   -4.8719 H   0  0  0  0  0  0  0  0  0  0  0  0
    3.1964    2.7537   -2.6031 H   0  0  0  0  0  0  0  0  0  0  0  0
    1.6281    0.0201    2.0410 H   0  0  0  0  0  0  0  0  0  0  0  0
    0.8614   -1.1777    4.0312 H   0  0  0  0  0  0  0  0  0  0  0  0
  1  2  1  0
  2  3  2  0
  3  4  1  0
  4  5  2  0
  5  6  1  0
  6  7  2  0
  7  8  1  0
  8  9  2  0
  9 10  1  0
 10 11  2  0
 11 12  1  0
 12 13  2  0
 13 14  1  0
  5 15  1  0
 15 16  2  0
 16  2  1  0
 14  6  1  0
 13  8  1  0
  1 17  1  0
  1 18  1  0
  1 19  1  0
  3 20  1  0
  4 21  1  0
  9 22  1  0
 10 23  1  0
 11 24  1  0
 12 25  1  0
 15 26  1  0
 16 27  1  0
M  END
$$$$

     RDKit          3D

 27 29  0  0  0  0  0  0  0  0999 V2000
   -0.4154   -5.0259   -1.6039 C   0  0  0  0  0  0  0  0  0  0  0  0
   -0.3466   -3.5990   -1.1634 C   0  0  0  0  0  0  0  0  0  0  0  0
   -1.5072   -2.8588   -0.9019 C   0  0  0  0  0  0  0  0  0  0  0  0
   -1.4444   -1.5485   -0.4817 C   0  0  0  0  0  0  0  0  0  0  0  0
   -0.2152   -0.9115   -0.2999 C   0  0  0  0  0  0  0  0  0  0  0  0
   -0.1453    0.4895    0.1471 C   0  0  0  0  0  0  0  0  0  0  0  0
    0.9778    1.0998    0.3363 N   0  0  0  0  0  0  0  0  0  0  0  0
    0.7600    2.3989    0.7600 C   0  0  0  0  0  0  0  0  0  0  0  0
    1.7754    3.3347    1.0709 C   0  0  0  0  0  0  0  0  0  0  0  0
    1.4068    4.5972    1.4862 C   0  0  0  0  0  0  0  0  0  0  0  0
    0.0512    4.9617    1.5970 C   0  0  0  0  0  0  0  0  0  0  0  0
   -0.9498    4.0495    1.2928 C   0  0  0  0  0  0  0  0  0  0  0  0
   -0.5868    2.7627    0.8806 C   0  0  0  0  0  0  0  0  0  0  0  0
   -1.5860    1.4159    0.4539 S   0  0  0  0  0  0  0  0  0  0  0  0
    0.9583   -1.6400   -0.5510 C   0  0  0  0  0  0  0  0  0  0  0  0
    0.8873   -2.9561   -0.9760 C   0  0  0  0  0  0  0  0  0  0  0  0
   -1.3734   -5.2517   -2.0672 H   0  0  0  0  0  0  0  0  0  0  0  0
   -0.2929   -5.6903   -0.7477 H   0  0  0  0  0  0  0  0  0  0  0  0
    0.3796   -5.2562   -2.3150 H   0  0  0  0  0  0  0  0  0  0  0  0
   -2.4723   -3.3284   -1.0380 H   0  0  0  0  0  0  0  0  0  0  0  0
   -2.3649   -1.0014   -0.2886 H   0  0  0  0  0  0  0  0  0  0  0  0
    2.8159    3.0434    0.9810 H   0  0  0  0  0  0  0  0  0  0  0  0
    2.1714    5.3125    1.7302 H   0  0  0  0  0  0  0  0  0  0  0  0
   -0.2075    5.9536    1.9200 H   0  0  0  0  0  0  0  0  0  0  0  0
   -1.9984    4.3202    1.3682 H   0  0  0  0  0  0  0  0  0  0  0  0
    1.9201   -1.1660   -0.4168 H   0  0  0  0  0  0  0  0  0  0  0  0
    1.8022   -3.5058   -1.1730 H   0  0  0  0  0  0  0  0  0  0  0  0
  1  2  1  0
  2  3  2  0
  3  4  1  0
  4  5  2  0
  5  6  1  0
  6  7  2  0
  7  8  1  0
  8  9  2  0
  9 10  1  0
 10 11  2  0
 11 12  1  0
 12 13  2  0
 13 14  1  0
  5 15  1  0
 15 16  2  0
 16  2  1  0
 14  6  1  0
 13  8  1  0
  1 17  1  0
  1 18  1  0
  1 19  1  0
  3 20  1  0
  4 21  1  0
  9 22  1  0
 10 23  1  0
 11 24  1  0
 12 25  1  0
 15 26  1  0
 16 27  1  0
M  END
$$$$
