
     RDKit          3D

 27 29  0  0  0  0  0  0  0  0999 V2000
   -1.0096   -4.3310   -2.7094 C   0  0  0  0  0  0  0  0  0  0  0  0
   -0.7308   -3.1032   -1.9026 C   0  0  0  0  0  0  0  0  0  0  0  0
    0.1355   -2.1033   -2.3703 C   0  0  0  0  0  0  0  0  0  0  0  0
    0.3849   -0.9614   -1.6408 C   0  0  0  0  0  0  0  0  0  0  0  0
   -0.2260   -0.7677   -0.3942 C   0  0  0  0  0  0  0  0  0  0  0  0
    0.0276    0.4180    0.3929 C   0  0  0  0  0  0  0  0  0  0  0  0
   -0.4396    0.6877    1.5734 N   0  0  0  0  0  0  0  0  0  0  0  0
    0.1019    1.9200    1.8752 C   0  0  0  0  0  0  0  0  0  0  0  0
   -0.0298    2.7451    3.0150 C   0  0  0  0  0  0  0  0  0  0  0  0
    0.6405    3.9549    3.0234 C   0  0  0  0  0  0  0  0  0  0  0  0
    1.4337    4.3597    1.9279 C   0  0  0  0  0  0  0  0  0  0  0  0
    1.5715    3.5551    0.8030 C   0  0  0  0  0  0  0  0  0  0  0  0
    0.8912    2.3467    0.8179 C   0  0  0  0  0  0  0  0  0  0  0  0
    0.8504    1.3749   -0.1343 O   0  0  0  0  0  0  0  0  0  0  0  0
   -1.0974   -1.7493    0.0845 C   0  0  0  0  0  0  0  0  0  0  0  0
   -1.3400   -2.8946   -0.6564 C   0  0  0  0  0  0  0  0  0  0  0  0
   -1.2204   -5.1869   -2.0650 H   0  0  0  0  0  0  0  0  0  0  0  0
   -0.1634   -4.5796   -3.3527 H   0  0  0  0  0  0  0  0  0  0  0  0
   -1.8800   -4.1706   -3.3490 H   0  0  0  0  0  0  0  0  0  0  0  0
    0.6220   -2.2342   -3.3295 H   0  0  0  0  0  0  0  0  0  0  0  0
    1.0476   -0.2057   -2.0263 H   0  0  0  0  0  0  0  0  0  0  0  0
   -0.6425    2.4288    3.8495 H   0  0  0  0  0  0  0  0  0  0  0  0
    0.5539    4.6013    3.8775 H   0  0  0  0  0  0  0  0  0  0  0  0
    1.9391    5.3076    1.9641 H   0  0  0  0  0  0  0  0  0  0  0  0
    2.1795    3.8466   -0.0484 H   0  0  0  0  0  0  0  0  0  0  0  0
   -1.5846   -1.6119    1.0420 H   0  0  0  0  0  0  0  0  0  0  0  0
   -2.0149   -3.6471   -0.2675 H   0  0  0  0  0  0  0  0  0  0  0  0
  1  2  1  0
  2  3  2  0
  3  4  1  0
  4  5  2  0
  5  6  1  0
  6  7  2  0
  7  8  1  0
  8  9  2  0
  9 10  1  0
 10 11  2  0
 11 12  1  0
 12 13  2  0
 13 14  1  0
  5 15  1  0
 15 16  2  0
 16  2  1  0
 14  6  1  0
 13  8  1  0
  1 17  1  0
  1 18  1  0
  1 19  1  0
  3 20  1  0
  4 21  1  0
  9 22  1  0
 10 23  1  0
 11 24  1  0
 12 25  1  0
 15 26  1  0
 16 27  1  0
M  END
$$$$

     RDKit          3D

 27 29  0  0  0  0  0  0  0  0999 V2000
    4.1066   -3.0061   -1.1040 C   0  0  0  0  0  0  0  0  0  0  0  0
    2.9083   -2.1735   -0.7798 C   0  0  0  0  0  0  0  0  0  0  0  0
    3.0354   -0.8686   -0.2793 C   0  0  0  0  0  0  0  0  0  0  0  0
    1.9346   -0.0903    0.0027 C   0  0  0  0  0  0  0  0  0  0  0  0
    0.6408   -0.5851   -0.2079 C   0  0  0  0  0  0  0  0  0  0  0  0
   -0.5284    0.2152    0.0803 C   0  0  0  0  0  0  0  0  0  0  0  0
   -1.7709   -0.1329   -0.0532 N   0  0  0  0  0  0  0  0  0  0  0  0
   -2.4794    0.9783    0.3548 C   0  0  0  0  0  0  0  0  0  0  0  0
   -3.8686    1.2258    0.4405 C   0  0  0  0  0  0  0  0  0  0  0  0
   -4.2819    2.4643    0.8960 C   0  0  0  0  0  0  0  0  0  0  0  0
   -3.3489    3.4588    1.2617 C   0  0  0  0  0  0  0  0  0  0  0  0
   -1.9803    3.2272    1.1788 C   0  0  0  0  0  0  0  0  0  0  0  0
   -1.5908    1.9786    0.7207 C   0  0  0  0  0  0  0  0  0  0  0  0
   -0.3337    1.4855    0.5486 O   0  0  0  0  0  0  0  0  0  0  0  0
    0.4936   -1.8809   -0.7087 C   0  0  0  0  0  0  0  0  0  0  0  0
    1.6076   -2.6571   -0.9852 C   0  0  0  0  0  0  0  0  0  0  0  0
    4.9801   -2.6865   -0.5325 H   0  0  0  0  0  0  0  0  0  0  0  0
    4.3494   -2.9170   -2.1636 H   0  0  0  0  0  0  0  0  0  0  0  0
    3.9194   -4.0614   -0.8951 H   0  0  0  0  0  0  0  0  0  0  0  0
    4.0255   -0.4644   -0.1086 H   0  0  0  0  0  0  0  0  0  0  0  0
    2.0632    0.9067    0.3877 H   0  0  0  0  0  0  0  0  0  0  0  0
   -4.5778    0.4608    0.1516 H   0  0  0  0  0  0  0  0  0  0  0  0
   -5.3332    2.6744    0.9750 H   0  0  0  0  0  0  0  0  0  0  0  0
   -3.7003    4.4107    1.6114 H   0  0  0  0  0  0  0  0  0  0  0  0
   -1.2456    3.9787    1.4566 H   0  0  0  0  0  0  0  0  0  0  0  0
   -0.4981   -2.2801   -0.8790 H   0  0  0  0  0  0  0  0  0  0  0  0
    1.4736   -3.6615   -1.3695 H   0  0  0  0  0  0  0  0  0  0  0  0
  1  2  1  0
  2  3  2  0
  3  4  1  0
  4  5  2  0
  5  6  1  0
  6  7  2  0
  7  8  1  0
  8  9  2  0
  9 10  1  0
 10 11  2  0
 11 12  1  0
 12 13  2  0
 13 14  1  0
  5 15  1  0
 15 16  2  0
 16  2  1  0
 14  6  1  0
 13  8  1  0
  1 17  1  0
  1 18  1  0
  1 19  1  0
  3 20  1  0
  4 21  1  0
  9 22  1  0
 10 23  1  0
 11 24  1  0
 12 25  1  0
 15 26  1  0
 16 27  1  0
M  END
$$$$

     RDKit          3D

 27 29  0  0  0  0  0  0  0  0999 V2000
    0.4618    3.9867   -3.3156 C   0  0  0  0  0  0  0  0  0  0  0  0
    0.3696    2.8230   -2.3831 C   0  0  0  0  0  0  0  0  0  0  0  0
    0.0524    2.9990   -1.0271 C   0  0  0  0  0  0  0  0  0  0  0  0
   -0.0637    1.9298   -0.1670 C   0  0  0  0  0  0  0  0  0  0  0  0
    0.1343    0.6208   -0.6293 C   0  0  0  0  0  0  0  0  0  0  0  0
    0.0104   -0.5189    0.2523 C   0  0  0  0  0  0  0  0  0  0  0  0
    0.1848   -1.7693   -0.0476 N   0  0  0  0  0  0  0  0  0  0  0  0
   -0.0646   -2.4391    1.1338 C   0  0  0  0  0  0  0  0  0  0  0  0
   -0.0467   -3.8158    1.4589 C   0  0  0  0  0  0  0  0  0  0  0  0
   -0.3607   -4.1841    2.7551 C   0  0  0  0  0  0  0  0  0  0  0  0
   -0.6819   -3.2180    3.7335 C   0  0  0  0  0  0  0  0  0  0  0  0
   -0.7018   -1.8627    3.4249 C   0  0  0  0  0  0  0  0  0  0  0  0
   -0.3905   -1.5193    2.1185 C   0  0  0  0  0  0  0  0  0  0  0  0
   -0.3362   -0.2817    1.5546 O   0  0  0  0  0  0  0  0  0  0  0  0
    0.4524    0.4267   -1.9754 C   0  0  0  0  0  0  0  0  0  0  0  0
    0.5676    1.5096   -2.8314 C   0  0  0  0  0  0  0  0  0  0  0  0
    1.1232    3.7703   -4.1567 H   0  0  0  0  0  0  0  0  0  0  0  0
   -0.5248    4.2195   -3.7175 H   0  0  0  0  0  0  0  0  0  0  0  0
    0.8271    4.8770   -2.8002 H   0  0  0  0  0  0  0  0  0  0  0  0
   -0.1062    4.0023   -0.6501 H   0  0  0  0  0  0  0  0  0  0  0  0
   -0.3077    2.0930    0.8692 H   0  0  0  0  0  0  0  0  0  0  0  0
    0.2040   -4.5510    0.7042 H   0  0  0  0  0  0  0  0  0  0  0  0
   -0.3618   -5.2246    3.0232 H   0  0  0  0  0  0  0  0  0  0  0  0
   -0.9150   -3.5339    4.7347 H   0  0  0  0  0  0  0  0  0  0  0  0
   -0.9467   -1.0997    4.1578 H   0  0  0  0  0  0  0  0  0  0  0  0
    0.6110   -0.5769   -2.3476 H   0  0  0  0  0  0  0  0  0  0  0  0
    0.8097    1.3375   -3.8722 H   0  0  0  0  0  0  0  0  0  0  0  0
  1  2  1  0
  2  3  2  0
  3  4  1  0
  4  5  2  0
  5  6  1  0
  6  7  2  0
  7  8  1  0
  8  9  2  0
  9 10  1  0
 10 11  2  0
 11 12  1  0
 12 13  2  0
 13 14  1  0
  5 15  1  0
 15 16  2  0
 16  2  1  0
 14  6  1  0
 13  8  1  0
  1 17  1  0
  1 18  1  0
  1 19  1  0
  3 20  1  0
  4 21  1  0
  9 22  1  0
 10 23  1  0
 11 24  1  0
 12 25  1  0
 15 26  1  0
 16 27  1  0
M  END
$$$$

     RDKit          3D

 27 29  0  0  0  0  0  0  0  0999 V2000
    0.4724    2.6814   -4.4359 C   0  0  0  0  0  0  0  0  0  0  0  0
    0.3719    1.9092   -3.1604 C   0  0  0  0  0  0  0  0  0  0  0  0
   -0.8311    1.8317   -2.4440 C   0  0  0  0  0  0  0  0  0  0  0  0
   -0.9314    1.1157   -1.2717 C   0  0  0  0  0  0  0  0  0  0  0  0
    0.1806    0.4332   -0.7596 C   0  0  0  0  0  0  0  0  0  0  0  0
    0.0995   -0.3219    0.4700 C   0  0  0  0  0  0  0  0  0  0  0  0
    1.0362   -1.0209    1.0325 N   0  0  0  0  0  0  0  0  0  0  0  0
    0.4397   -1.5379    2.1647 C   0  0  0  0  0  0  0  0  0  0  0  0
    0.9307   -2.3895    3.1827 C   0  0  0  0  0  0  0  0  0  0  0  0
    0.0671   -2.7524    4.2005 C   0  0  0  0  0  0  0  0  0  0  0  0
   -1.2646   -2.2825    4.2332 C   0  0  0  0  0  0  0  0  0  0  0  0
   -1.7557   -1.4415    3.2408 C   0  0  0  0  0  0  0  0  0  0  0  0
   -0.8756   -1.1025    2.2262 C   0  0  0  0  0  0  0  0  0  0  0  0
   -1.0946   -0.3149    1.1382 O   0  0  0  0  0  0  0  0  0  0  0  0
    1.3853    0.4906   -1.4646 C   0  0  0  0  0  0  0  0  0  0  0  0
    1.4763    1.2175   -2.6404 C   0  0  0  0  0  0  0  0  0  0  0  0
    0.5055    2.0012   -5.2860 H   0  0  0  0  0  0  0  0  0  0  0  0
    1.3876    3.2782   -4.4566 H   0  0  0  0  0  0  0  0  0  0  0  0
   -0.3828    3.3492   -4.5674 H   0  0  0  0  0  0  0  0  0  0  0  0
   -1.7038    2.3488   -2.8235 H   0  0  0  0  0  0  0  0  0  0  0  0
   -1.8674    1.0751   -0.7434 H   0  0  0  0  0  0  0  0  0  0  0  0
    1.9547   -2.7418    3.1529 H   0  0  0  0  0  0  0  0  0  0  0  0
    0.4142   -3.4022    4.9850 H   0  0  0  0  0  0  0  0  0  0  0  0
   -1.9124   -2.5821    5.0365 H   0  0  0  0  0  0  0  0  0  0  0  0
   -2.7733   -1.0590    3.2512 H   0  0  0  0  0  0  0  0  0  0  0  0
    2.2523   -0.0359   -1.0866 H   0  0  0  0  0  0  0  0  0  0  0  0
    2.4187    1.2535   -3.1742 H   0  0  0  0  0  0  0  0  0  0  0  0
  1  2  1  0
  2  3  2  0
  3  4  1  0
  4  5  2  0
  5  6  1  0
  6  7  2  0
  7  8  1  0
  8  9  2  0
  9 10  1  0
 10 11  2  0
 11 12  1  0
 12 13  2  0
 13 14  1  0
  5 15  1  0
 15 16  2  0
 16  2  1  0
 14  6  1  0
 13  8  1  0
  1 17  1  0
  1 18  1  0
  1 19  1  0
  3 20  1  0
  4 21  1  0
  9 22  1  0
 10 23  1  0
 11 24  1  0
 12 25  1  0
 15 26  1  0
 16 27  1  0
M  END
$$$$

     RDKit          3D

 27 29  0  0  0  0  0  0  0  0999 V2000
    2.7932    3.6742    2.4088 C   0  0  0  0  0  0  0  0  0  0  0  0
    2.0200    2.6000    1.7152 C   0  0  0  0  0  0  0  0  0  0  0  0
    2.4332    1.2583    1.7574 C   0  0  0  0  0  0  0  0  0  0  0  0
    1.7147    0.2598    1.1348 C   0  0  0  0  0  0  0  0  0  0  0  0
    0.5427    0.5611    0.4350 C   0  0  0  0  0  0  0  0  0  0  0  0
   -0.1993   -0.4938   -0.2186 C   0  0  0  0  0  0  0  0  0  0  0  0
    0.0941   -1.7583   -0.2562 N   0  0  0  0  0  0  0  0  0  0  0  0
   -0.9279   -2.3208   -0.9930 C   0  0  0  0  0  0  0  0  0  0  0  0
   -1.1775   -3.6566   -1.3840 C   0  0  0  0  0  0  0  0  0  0  0  0
   -2.3076   -3.9144   -2.1373 C   0  0  0  0  0  0  0  0  0  0  0  0
   -3.1928   -2.8785   -2.5087 C   0  0  0  0  0  0  0  0  0  0  0  0
   -2.9556   -1.5608   -2.1326 C   0  0  0  0  0  0  0  0  0  0  0  0
   -1.8145   -1.3269   -1.3807 C   0  0  0  0  0  0  0  0  0  0  0  0
   -1.3449   -0.1502   -0.8793 O   0  0  0  0  0  0  0  0  0  0  0  0
    0.1128    1.8933    0.3850 C   0  0  0  0  0  0  0  0  0  0  0  0
    0.8411    2.8868    1.0160 C   0  0  0  0  0  0  0  0  0  0  0  0
    2.4157    3.8100    3.4225 H   0  0  0  0  0  0  0  0  0  0  0  0
    3.8514    3.4150    2.4773 H   0  0  0  0  0  0  0  0  0  0  0  0
    2.7021    4.6277    1.8858 H   0  0  0  0  0  0  0  0  0  0  0  0
    3.3416    1.0078    2.2910 H   0  0  0  0  0  0  0  0  0  0  0  0
    2.0521   -0.7678    1.1813 H   0  0  0  0  0  0  0  0  0  0  0  0
   -0.4920   -4.4436   -1.0930 H   0  0  0  0  0  0  0  0  0  0  0  0
   -2.5179   -4.9214   -2.4480 H   0  0  0  0  0  0  0  0  0  0  0  0
   -4.0654   -3.1106   -3.0916 H   0  0  0  0  0  0  0  0  0  0  0  0
   -3.6245   -0.7494   -2.4057 H   0  0  0  0  0  0  0  0  0  0  0  0
   -0.7837    2.1488   -0.1491 H   0  0  0  0  0  0  0  0  0  0  0  0
    0.4891    3.9102    0.9680 H   0  0  0  0  0  0  0  0  0  0  0  0
  1  2  1  0
  2  3  2  0
  3  4  1  0
  4  5  2  0
  5  6  1  0
  6  7  2  0
  7  8  1  0
  8  9  2  0
  9 10  1  0
 10 11  2  0
 11 12  1  0
 12 13  2  0
 13 14  1  0
  5 15  1  0
 15 16  2  0
 16  2  1  0
 14  6  1  0
 13  8  1  0
  1 17  1  0
  1 18  1  0
  1 19  1  0
  3 20  1  0
  4 21  1  0
  9 22  1  0
 10 23  1  0
 11 24  1  0
 12 25  1  0
 15 26  1  0
 16 27  1  0
M  END
$$$$

     RDKit          3D

 27 29  0  0  0  0  0  0  0  0999 V2000
    4.6327   -2.2561   -0.7440 C   0  0  0  0  0  0  0  0  0  0  0  0
    3.2965   -1.6339   -0.4978 C   0  0  0  0  0  0  0  0  0  0  0  0
    3.1189   -0.2426   -0.5220 C   0  0  0  0  0  0  0  0  0  0  0  0
    1.8826    0.3333   -0.3259 C   0  0  0  0  0  0  0  0  0  0  0  0
    0.7556   -0.4684   -0.0950 C   0  0  0  0  0  0  0  0  0  0  0  0
   -0.5540    0.1102    0.1038 C   0  0  0  0  0  0  0  0  0  0  0  0
   -1.6706   -0.5173    0.3232 N   0  0  0  0  0  0  0  0  0  0  0  0
   -2.6082    0.4869    0.4415 C   0  0  0  0  0  0  0  0  0  0  0  0
   -4.0020    0.4516    0.6843 C   0  0  0  0  0  0  0  0  0  0  0  0
   -4.6854    1.6525    0.7434 C   0  0  0  0  0  0  0  0  0  0  0  0
   -4.0163    2.8837    0.5710 C   0  0  0  0  0  0  0  0  0  0  0  0
   -2.6478    2.9302    0.3291 C   0  0  0  0  0  0  0  0  0  0  0  0
   -1.9850    1.7142    0.2721 C   0  0  0  0  0  0  0  0  0  0  0  0
   -0.6624    1.4713    0.0585 O   0  0  0  0  0  0  0  0  0  0  0  0
    0.9151   -1.8553   -0.0581 C   0  0  0  0  0  0  0  0  0  0  0  0
    2.1628   -2.4233   -0.2553 C   0  0  0  0  0  0  0  0  0  0  0  0
    4.7796   -3.1324   -0.1078 H   0  0  0  0  0  0  0  0  0  0  0  0
    5.4429   -1.5480   -0.5611 H   0  0  0  0  0  0  0  0  0  0  0  0
    4.7050   -2.5860   -1.7809 H   0  0  0  0  0  0  0  0  0  0  0  0
    3.9789    0.3938   -0.6934 H   0  0  0  0  0  0  0  0  0  0  0  0
    1.7744    1.4051   -0.3483 H   0  0  0  0  0  0  0  0  0  0  0  0
   -4.5078   -0.4959    0.8166 H   0  0  0  0  0  0  0  0  0  0  0  0
   -5.7462    1.6504    0.9237 H   0  0  0  0  0  0  0  0  0  0  0  0
   -4.5749    3.7999    0.6201 H   0  0  0  0  0  0  0  0  0  0  0  0
   -2.1107    3.8645    0.1921 H   0  0  0  0  0  0  0  0  0  0  0  0
    0.0577   -2.4877    0.1314 H   0  0  0  0  0  0  0  0  0  0  0  0
    2.2686   -3.5005   -0.2215 H   0  0  0  0  0  0  0  0  0  0  0  0
  1  2  1  0
  2  3  2  0
  3  4  1  0
  4  5  2  0
  5  6  1  0
  6  7  2  0
  7  8  1  0
  8  9  2  0
  9 10  1  0
 10 11  2  0
 11 12  1  0
 12 13  2  0
 13 14  1  0
  5 15  1  0
 15 16  2  0
 16  2  1  0
 14  6  1  0
 13  8  1  0
  1 17  1  0
  1 18  1  0
  1 19  1  0
  3 20  1  0
  4 21  1  0
  9 22  1  0
 10 23  1  0
 11 24  1  0
 12 25  1  0
 15 26  1  0
 16 27  1  0
M  END
$$$$

     RDKit          3D

 27 29  0  0  0  0  0  0  0  0999 V2000
   -4.6489   -1.0361    2.1010 C   0  0  0  0  0  0  0  0  0  0  0  0
   -3.3167   -0.7091    1.5088 C   0  0  0  0  0  0  0  0  0  0  0  0
   -2.6043   -1.6401    0.7391 C   0  0  0  0  0  0  0  0  0  0  0  0
   -1.3804   -1.3359    0.1853 C   0  0  0  0  0  0  0  0  0  0  0  0
   -0.8048   -0.0736    0.3841 C   0  0  0  0  0  0  0  0  0  0  0  0
    0.4873    0.2586   -0.1752 C   0  0  0  0  0  0  0  0  0  0  0  0
    1.1384    1.3738   -0.0565 N   0  0  0  0  0  0  0  0  0  0  0  0
    2.3052    1.1611   -0.7634 C   0  0  0  0  0  0  0  0  0  0  0  0
    3.4226    1.9941   -1.0057 C   0  0  0  0  0  0  0  0  0  0  0  0
    4.4581    1.4906   -1.7724 C   0  0  0  0  0  0  0  0  0  0  0  0
    4.4100    0.1807   -2.2962 C   0  0  0  0  0  0  0  0  0  0  0  0
    3.3172   -0.6460   -2.0645 C   0  0  0  0  0  0  0  0  0  0  0  0
    2.2894   -0.1175   -1.2985 C   0  0  0  0  0  0  0  0  0  0  0  0
    1.1193   -0.7015   -0.9174 O   0  0  0  0  0  0  0  0  0  0  0  0
   -1.5041    0.8705    1.1397 C   0  0  0  0  0  0  0  0  0  0  0  0
   -2.7367    0.5557    1.6885 C   0  0  0  0  0  0  0  0  0  0  0  0
   -5.4377   -0.5147    1.5606 H   0  0  0  0  0  0  0  0  0  0  0  0
   -4.6998   -0.7148    3.1428 H   0  0  0  0  0  0  0  0  0  0  0  0
   -4.8535   -2.1090    2.0591 H   0  0  0  0  0  0  0  0  0  0  0  0
   -3.0257   -2.6246    0.5821 H   0  0  0  0  0  0  0  0  0  0  0  0
   -0.8549   -2.0678   -0.4059 H   0  0  0  0  0  0  0  0  0  0  0  0
    3.4553    2.9937   -0.5940 H   0  0  0  0  0  0  0  0  0  0  0  0
    5.3179    2.1051   -1.9712 H   0  0  0  0  0  0  0  0  0  0  0  0
    5.2324   -0.1863   -2.8823 H   0  0  0  0  0  0  0  0  0  0  0  0
    3.2615   -1.6595   -2.4535 H   0  0  0  0  0  0  0  0  0  0  0  0
   -1.0786    1.8531    1.2968 H   0  0  0  0  0  0  0  0  0  0  0  0
   -3.2686    1.2995    2.2688 H   0  0  0  0  0  0  0  0  0  0  0  0
  1  2  1  0
  2  3  2  0
  3  4  1  0
  4  5  2  0
  5  6  1  0
  6  7  2  0
  7  8  1  0
  8  9  2  0
  9 10  1  0
 10 11  2  0
 11 12  1  0
 12 13  2  0
 13 14  1  0
  5 15  1  0
 15 16  2  0
 16  2  1  0
 14  6  1  0
 13  8  1  0
  1 17  1  0
  1 18  1  0
  1 19  1  0
  3 20  1  0
  4 21  1  0
  9 22  1  0
 10 23  1  0
 11 24  1  0
 12 25  1  0
 15 26  1  0
 16 27  1  0
M  END
$$$$

     RDKit          3D

 27 29  0  0  0  0  0  0  0  0999 V2000
    1.1720    0.2665   -5.0667 C   0  0  0  0  0  0  0  0  0  0  0  0
    0.8233    0.1459   -3.6182 C   0  0  0  0  0  0  0  0  0  0  0  0
    1.6137    0.7485   -2.6282 C   0  0  0  0  0  0  0  0  0  0  0  0
    1.2846    0.6708   -1.2929 C   0  0  0  0  0  0  0  0  0  0  0  0
    0.1359   -0.0210   -0.8838 C   0  0  0  0  0  0  0  0  0  0  0  0
   -0.2328   -0.1107    0.5114 C   0  0  0  0  0  0  0  0  0  0  0  0
   -1.2449   -0.7495    1.0138 N   0  0  0  0  0  0  0  0  0  0  0  0
   -1.1466   -0.5263    2.3722 C   0  0  0  0  0  0  0  0  0  0  0  0
   -1.9476   -0.9580    3.4549 C   0  0  0  0  0  0  0  0  0  0  0  0
   -1.5889   -0.5602    4.7296 C   0  0  0  0  0  0  0  0  0  0  0  0
   -0.4555    0.2515    4.9512 C   0  0  0  0  0  0  0  0  0  0  0  0
    0.3398    0.6808    3.8947 C   0  0  0  0  0  0  0  0  0  0  0  0
   -0.0407    0.2728    2.6248 C   0  0  0  0  0  0  0  0  0  0  0  0
    0.5504    0.5351    1.4272 O   0  0  0  0  0  0  0  0  0  0  0  0
   -0.6607   -0.6312   -1.8548 C   0  0  0  0  0  0  0  0  0  0  0  0
   -0.3178   -0.5499   -3.1948 C   0  0  0  0  0  0  0  0  0  0  0  0
    0.7709    1.1980   -5.4702 H   0  0  0  0  0  0  0  0  0  0  0  0
    0.7557   -0.5586   -5.6444 H   0  0  0  0  0  0  0  0  0  0  0  0
    2.2543    0.2859   -5.2095 H   0  0  0  0  0  0  0  0  0  0  0  0
    2.5058    1.2870   -2.9259 H   0  0  0  0  0  0  0  0  0  0  0  0
    1.9078    1.1403   -0.5527 H   0  0  0  0  0  0  0  0  0  0  0  0
   -2.8147   -1.5819    3.2790 H   0  0  0  0  0  0  0  0  0  0  0  0
   -2.1827   -0.8750    5.5703 H   0  0  0  0  0  0  0  0  0  0  0  0
   -0.2029    0.5426    5.9550 H   0  0  0  0  0  0  0  0  0  0  0  0
    1.2169    1.3025    4.0465 H   0  0  0  0  0  0  0  0  0  0  0  0
   -1.5508   -1.1720   -1.5571 H   0  0  0  0  0  0  0  0  0  0  0  0
   -0.9446   -1.0340   -3.9315 H   0  0  0  0  0  0  0  0  0  0  0  0
  1  2  1  0
  2  3  2  0
  3  4  1  0
  4  5  2  0
  5  6  1  0
  6  7  2  0
  7  8  1  0
  8  9  2  0
  9 10  1  0
 10 11  2  0
 11 12  1  0
 12 13  2  0
 13 14  1  0
  5 15  1  0
 15 16  2  0
 16  2  1  0
 14  6  1  0
 13  8  1  0
  1 17  1  0
  1 18  1  0
  1 19  1  0
  3 20  1  0
  4 21  1  0
  9 22  1  0
 10 23  1  0
 11 24  1  0
 12 25  1  0
 15 26  1  0
 16 27  1  0
M  END
$$$$

     RDKit          3D

 27 29  0  0  0  0  0  0  0  0999 V2000
   -2.8688   -0.4990    4.3150 C   0  0  0  0  0  0  0  0  0  0  0  0
   -2.0577   -0.4020    3.0637 C   0  0  0  0  0  0  0  0  0  0  0  0
   -1.9080    0.8206    2.3898 C   0  0  0  0  0  0  0  0  0  0  0  0
   -1.1435    0.9322    1.2499 C   0  0  0  0  0  0  0  0  0  0  0  0
   -0.4839   -0.1893    0.7267 C   0  0  0  0  0  0  0  0  0  0  0  0
    0.3295   -0.0962   -0.4650 C   0  0  0  0  0  0  0  0  0  0  0  0
    0.9854   -1.0517   -1.0519 N   0  0  0  0  0  0  0  0  0  0  0  0
    1.5919   -0.4355   -2.1256 C   0  0  0  0  0  0  0  0  0  0  0  0
    2.4459   -0.9374   -3.1341 C   0  0  0  0  0  0  0  0  0  0  0  0
    2.9032   -0.0554   -4.0953 C   0  0  0  0  0  0  0  0  0  0  0  0
    2.5348    1.3074   -4.0749 C   0  0  0  0  0  0  0  0  0  0  0  0
    1.7004    1.8129   -3.0843 C   0  0  0  0  0  0  0  0  0  0  0  0
    1.2557    0.9111   -2.1306 C   0  0  0  0  0  0  0  0  0  0  0  0
    0.4433    1.1280   -1.0611 O   0  0  0  0  0  0  0  0  0  0  0  0
   -0.6248   -1.4152    1.3811 C   0  0  0  0  0  0  0  0  0  0  0  0
   -1.3984   -1.5167    2.5271 C   0  0  0  0  0  0  0  0  0  0  0  0
   -2.2554   -0.2379    5.1800 H   0  0  0  0  0  0  0  0  0  0  0  0
   -3.2485   -1.5107    4.4634 H   0  0  0  0  0  0  0  0  0  0  0  0
   -3.7133    0.1917    4.2913 H   0  0  0  0  0  0  0  0  0  0  0  0
   -2.4113    1.6980    2.7816 H   0  0  0  0  0  0  0  0  0  0  0  0
   -1.0473    1.8848    0.7542 H   0  0  0  0  0  0  0  0  0  0  0  0
    2.7317   -1.9818   -3.1402 H   0  0  0  0  0  0  0  0  0  0  0  0
    3.5540   -0.4127   -4.8736 H   0  0  0  0  0  0  0  0  0  0  0  0
    2.9071    1.9669   -4.8378 H   0  0  0  0  0  0  0  0  0  0  0  0
    1.4052    2.8576   -3.0512 H   0  0  0  0  0  0  0  0  0  0  0  0
   -0.1304   -2.2921    0.9864 H   0  0  0  0  0  0  0  0  0  0  0  0
   -1.4970   -2.4775    3.0152 H   0  0  0  0  0  0  0  0  0  0  0  0
  1  2  1  0
  2  3  2  0
  3  4  1  0
  4  5  2  0
  5  6  1  0
  6  7  2  0
  7  8  1  0
  8  9  2  0
  9 10  1  0
 10 11  2  0
 11 12  1  0
 12 13  2  0
 13 14  1  0
  5 15  1  0
 15 16  2  0
 16  2  1  0
 14  6  1  0
 13  8  1  0
  1 17  1  0
  1 18  1  0
  1 19  1  0
  3 20  1  0
  4 21  1  0
  9 22  1  0
 10 23  1  0
 11 24  1  0
 12 25  1  0
 15 26  1  0
 16 27  1  0
M  END
$$$$

     RDKit          3D

 27 29  0  0  0  0  0  0  0  0999 V2000
    2.6477    1.0847   -4.3513 C   0  0  0  0  0  0  0  0  0  0  0  0
    1.9130    0.7778   -3.0869 C   0  0  0  0  0  0  0  0  0  0  0  0
    0.6583    0.1528   -3.0968 C   0  0  0  0  0  0  0  0  0  0  0  0
   -0.0222   -0.1263   -1.9317 C   0  0  0  0  0  0  0  0  0  0  0  0
    0.5270    0.2134   -0.6880 C   0  0  0  0  0  0  0  0  0  0  0  0
   -0.1748   -0.0601    0.5463 C   0  0  0  0  0  0  0  0  0  0  0  0
    0.2156    0.2158    1.7526 N   0  0  0  0  0  0  0  0  0  0  0  0
   -0.8076   -0.2461    2.5539 C   0  0  0  0  0  0  0  0  0  0  0  0
   -0.9755   -0.2425    3.9575 C   0  0  0  0  0  0  0  0  0  0  0  0
   -2.1289   -0.8004    4.4760 C   0  0  0  0  0  0  0  0  0  0  0  0
   -3.1177   -1.3564    3.6352 C   0  0  0  0  0  0  0  0  0  0  0  0
   -2.9650   -1.3638    2.2539 C   0  0  0  0  0  0  0  0  0  0  0  0
   -1.7977   -0.8030    1.7573 C   0  0  0  0  0  0  0  0  0  0  0  0
   -1.3916   -0.6790    0.4638 O   0  0  0  0  0  0  0  0  0  0  0  0
    1.7789    0.8336   -0.6575 C   0  0  0  0  0  0  0  0  0  0  0  0
    2.4544    1.1101   -1.8353 C   0  0  0  0  0  0  0  0  0  0  0  0
    3.6597    0.6839   -4.3186 H   0  0  0  0  0  0  0  0  0  0  0  0
    2.1394    0.6649   -5.2231 H   0  0  0  0  0  0  0  0  0  0  0  0
    2.7295    2.1636   -4.4908 H   0  0  0  0  0  0  0  0  0  0  0  0
    0.2087   -0.1133   -4.0451 H   0  0  0  0  0  0  0  0  0  0  0  0
   -0.9827   -0.6122   -1.9712 H   0  0  0  0  0  0  0  0  0  0  0  0
   -0.2154    0.1841    4.6002 H   0  0  0  0  0  0  0  0  0  0  0  0
   -2.2792   -0.8101    5.5404 H   0  0  0  0  0  0  0  0  0  0  0  0
   -4.0027   -1.7805    4.0706 H   0  0  0  0  0  0  0  0  0  0  0  0
   -3.7149   -1.7826    1.5884 H   0  0  0  0  0  0  0  0  0  0  0  0
    2.2214    1.0984    0.2941 H   0  0  0  0  0  0  0  0  0  0  0  0
    3.4224    1.5929   -1.7936 H   0  0  0  0  0  0  0  0  0  0  0  0
  1  2  1  0
  2  3  2  0
  3  4  1  0
  4  5  2  0
  5  6  1  0
  6  7  2  0
  7  8  1  0
  8  9  2  0
  9 10  1  0
 10 11  2  0
 11 12  1  0
 12 13  2  0
 13 14  1  0
  5 15  1  0
 15 16  2  0
 16  2  1  0
 14  6  1  0
 13  8  1  0
  1 17  1  0
  1 18  1  0
  1 19  1  0
  3 20  1  0
  4 21  1  0
  9 22  1  0
 10 23  1  0
 11 24  1  0
 12 25  1  0
 15 26  1  0
 16 27  1  0
M  END
$$$$

     RDKit          3D

 27 29  0  0  0  0  0  0  0  0999 V2000
    2.7706    4.3275   -0.8378 C   0  0  0  0  0  0  0  0  0  0  0  0
    1.9483    3.1003   -0.6055 C   0  0  0  0  0  0  0  0  0  0  0  0
    2.5299    1.9095   -0.1437 C   0  0  0  0  0  0  0  0  0  0  0  0
    1.7806    0.7714    0.0633 C   0  0  0  0  0  0  0  0  0  0  0  0
    0.3991    0.7764   -0.1796 C   0  0  0  0  0  0  0  0  0  0  0  0
   -0.4138   -0.3983    0.0433 C   0  0  0  0  0  0  0  0  0  0  0  0
   -1.6980   -0.5082   -0.1167 N   0  0  0  0  0  0  0  0  0  0  0  0
   -1.9710   -1.8145    0.2279 C   0  0  0  0  0  0  0  0  0  0  0  0
   -3.1827   -2.5432    0.2693 C   0  0  0  0  0  0  0  0  0  0  0  0
   -3.1327   -3.8641    0.6752 C   0  0  0  0  0  0  0  0  0  0  0  0
   -1.9107   -4.4741    1.0359 C   0  0  0  0  0  0  0  0  0  0  0  0
   -0.7152   -3.7668    1.0001 C   0  0  0  0  0  0  0  0  0  0  0  0
   -0.7924   -2.4449    0.5962 C   0  0  0  0  0  0  0  0  0  0  0  0
    0.2116   -1.5339    0.4748 O   0  0  0  0  0  0  0  0  0  0  0  0
   -0.1955    1.9508   -0.6462 C   0  0  0  0  0  0  0  0  0  0  0  0
    0.5681    3.0879   -0.8566 C   0  0  0  0  0  0  0  0  0  0  0  0
    3.1086    4.3591   -1.8739 H   0  0  0  0  0  0  0  0  0  0  0  0
    3.6529    4.3458   -0.1951 H   0  0  0  0  0  0  0  0  0  0  0  0
    2.1855    5.2298   -0.6525 H   0  0  0  0  0  0  0  0  0  0  0  0
    3.5966    1.8894    0.0509 H   0  0  0  0  0  0  0  0  0  0  0  0
    2.2530   -0.1301    0.4157 H   0  0  0  0  0  0  0  0  0  0  0  0
   -4.1154   -2.0705   -0.0110 H   0  0  0  0  0  0  0  0  0  0  0  0
   -4.0400   -4.4410    0.7168 H   0  0  0  0  0  0  0  0  0  0  0  0
   -1.9051   -5.5030    1.3451 H   0  0  0  0  0  0  0  0  0  0  0  0
    0.2387   -4.2132    1.2687 H   0  0  0  0  0  0  0  0  0  0  0  0
   -1.2600    1.9696   -0.8438 H   0  0  0  0  0  0  0  0  0  0  0  0
    0.0895    3.9882   -1.2208 H   0  0  0  0  0  0  0  0  0  0  0  0
  1  2  1  0
  2  3  2  0
  3  4  1  0
  4  5  2  0
  5  6  1  0
  6  7  2  0
  7  8  1  0
  8  9  2  0
  9 10  1  0
 10 11  2  0
 11 12  1  0
 12 13  2  0
 13 14  1  0
  5 15  1  0
 15 16  2  0
 16  2  1  0
 14  6  1  0
 13  8  1  0
  1 17  1  0
  1 18  1  0
  1 19  1  0
  3 20  1  0
  4 21  1  0
  9 22  1  0
 10 23  1  0
 11 24  1  0
 12 25  1  0
 15 26  1  0
 16 27  1  0
M  END
$$$$

     RDKit          3D

 27 29  0  0  0  0  0  0  0  0999 V2000
   -4.8169    0.2662    1.9620 C   0  0  0  0  0  0  0  0  0  0  0  0
   -3.4253    0.2159    1.4197 C   0  0  0  0  0  0  0  0  0  0  0  0
   -2.9818   -0.8665    0.6446 C   0  0  0  0  0  0  0  0  0  0  0  0
   -1.7068   -0.9140    0.1261 C   0  0  0  0  0  0  0  0  0  0  0  0
   -0.8038    0.1309    0.3667 C   0  0  0  0  0  0  0  0  0  0  0  0
    0.5448    0.0996   -0.1546 C   0  0  0  0  0  0  0  0  0  0  0  0
    1.4695    0.9988   -0.0010 N   0  0  0  0  0  0  0  0  0  0  0  0
    2.5533    0.4901   -0.6851 C   0  0  0  0  0  0  0  0  0  0  0  0
    3.8553    1.0018   -0.8943 C   0  0  0  0  0  0  0  0  0  0  0  0
    4.7385    0.2462   -1.6434 C   0  0  0  0  0  0  0  0  0  0  0  0
    4.3576   -1.0004   -2.1853 C   0  0  0  0  0  0  0  0  0  0  0  0
    3.0805   -1.5126   -1.9869 C   0  0  0  0  0  0  0  0  0  0  0  0
    2.2107   -0.7354   -1.2379 C   0  0  0  0  0  0  0  0  0  0  0  0
    0.9169   -0.9873   -0.8953 O   0  0  0  0  0  0  0  0  0  0  0  0
   -1.2295    1.2203    1.1297 C   0  0  0  0  0  0  0  0  0  0  0  0
   -2.5145    1.2576    1.6459 C   0  0  0  0  0  0  0  0  0  0  0  0
   -5.4611    0.8313    1.2869 H   0  0  0  0  0  0  0  0  0  0  0  0
   -4.8454    0.7580    2.9361 H   0  0  0  0  0  0  0  0  0  0  0  0
   -5.2370   -0.7361    2.0642 H   0  0  0  0  0  0  0  0  0  0  0  0
   -3.6595   -1.6878    0.4515 H   0  0  0  0  0  0  0  0  0  0  0  0
   -1.3917   -1.7559   -0.4677 H   0  0  0  0  0  0  0  0  0  0  0  0
    4.1411    1.9589   -0.4767 H   0  0  0  0  0  0  0  0  0  0  0  0
    5.7336    0.6149   -1.8173 H   0  0  0  0  0  0  0  0  0  0  0  0
    5.0675   -1.5654   -2.7612 H   0  0  0  0  0  0  0  0  0  0  0  0
    2.7711   -2.4722   -2.3916 H   0  0  0  0  0  0  0  0  0  0  0  0
   -0.5447    2.0367    1.3216 H   0  0  0  0  0  0  0  0  0  0  0  0
   -2.8225    2.1060    2.2431 H   0  0  0  0  0  0  0  0  0  0  0  0
  1  2  1  0
  2  3  2  0
  3  4  1  0
  4  5  2  0
  5  6  1  0
  6  7  2  0
  7  8  1  0
  8  9  2  0
  9 10  1  0
 10 11  2  0
 11 12  1  0
 12 13  2  0
 13 14  1  0
  5 15  1  0
 15 16  2  0
 16  2  1  0
 14  6  1  0
 13  8  1  0
  1 17  1  0
  1 18  1  0
  1 19  1  0
  3 20  1  0
  4 21  1  0
  9 22  1  0
 10 23  1  0
 11 24  1  0
 12 25  1  0
 15 26  1  0
 16 27  1  0
M  END
$$$$
