
     RDKit          3D

 24 26  0  0  0  0  0  0  0  0999 V2000
   -4.3100   -1.1042    3.7305 F   0  0  0  0  0  0  0  0  0  0  0  0
   -3.3127   -0.8072    2.8791 C   0  0  0  0  0  0  0  0  0  0  0  0
   -2.7189    0.4425    2.9552 C   0  0  0  0  0  0  0  0  0  0  0  0
   -1.6974    0.7460    2.0751 C   0  0  0  0  0  0  0  0  0  0  0  0
   -1.2549   -0.1918    1.1276 C   0  0  0  0  0  0  0  0  0  0  0  0
   -0.1602    0.1320    0.1989 C   0  0  0  0  0  0  0  0  0  0  0  0
    0.3117   -0.7361   -0.6469 N   0  0  0  0  0  0  0  0  0  0  0  0
    1.3352   -0.1799   -1.3877 C   0  0  0  0  0  0  0  0  0  0  0  0
    2.0761   -0.8507   -2.3908 C   0  0  0  0  0  0  0  0  0  0  0  0
    3.0781   -0.1628   -3.0488 C   0  0  0  0  0  0  0  0  0  0  0  0
    3.3614    1.1861   -2.7417 C   0  0  0  0  0  0  0  0  0  0  0  0
    2.6361    1.8508   -1.7577 C   0  0  0  0  0  0  0  0  0  0  0  0
    1.6273    1.1639   -1.0783 C   0  0  0  0  0  0  0  0  0  0  0  0
    0.5822    1.7074    0.1703 S   0  0  0  0  0  0  0  0  0  0  0  0
   -1.8778   -1.4526    1.0826 C   0  0  0  0  0  0  0  0  0  0  0  0
   -2.9170   -1.7605    1.9548 C   0  0  0  0  0  0  0  0  0  0  0  0
   -3.0539    1.1654    3.6896 H   0  0  0  0  0  0  0  0  0  0  0  0
   -1.2318    1.7305    2.1277 H   0  0  0  0  0  0  0  0  0  0  0  0
    1.8506   -1.8825   -2.6207 H   0  0  0  0  0  0  0  0  0  0  0  0
    3.6508   -0.6648   -3.8127 H   0  0  0  0  0  0  0  0  0  0  0  0
    4.1460    1.7003   -3.2740 H   0  0  0  0  0  0  0  0  0  0  0  0
    2.8404    2.8871   -1.5144 H   0  0  0  0  0  0  0  0  0  0  0  0
   -1.5516   -2.1937    0.3656 H   0  0  0  0  0  0  0  0  0  0  0  0
   -3.4097   -2.7253    1.9168 H   0  0  0  0  0  0  0  0  0  0  0  0
  1  2  1  0
  2  3  2  0
  3  4  1  0
  4  5  2  0
  5  6  1  0
  6  7  2  0
  7  8  1  0
  8  9  2  0
  9 10  1  0
 10 11  2  0
 11 12  1  0
 12 13  2  0
 13 14  1  0
  5 15  1  0
 15 16  2  0
 16  2  1  0
 14  6  1  0
 13  8  1  0
  3 17  1  0
  4 18  1  0
  9 19  1  0
 10 20  1  0
 11 21  1  0
 12 22  1  0
 15 23  1  0
 16 24  1  0
M  END
$$$$

     RDKit          3D

 24 26  0  0  0  0  0  0  0  0999 V2000
    0.8769    5.5292   -1.5427 F   0  0  0  0  0  0  0  0  0  0  0  0
    0.6771    4.2618   -1.1401 C   0  0  0  0  0  0  0  0  0  0  0  0
    0.5964    3.2613   -2.0983 C   0  0  0  0  0  0  0  0  0  0  0  0
    0.3870    1.9573   -1.6830 C   0  0  0  0  0  0  0  0  0  0  0  0
    0.2612    1.6488   -0.3109 C   0  0  0  0  0  0  0  0  0  0  0  0
    0.0361    0.2600    0.1259 C   0  0  0  0  0  0  0  0  0  0  0  0
   -0.0203   -0.7288   -0.7148 N   0  0  0  0  0  0  0  0  0  0  0  0
   -0.2485   -1.9160   -0.0498 C   0  0  0  0  0  0  0  0  0  0  0  0
   -0.3704   -3.1812   -0.6694 C   0  0  0  0  0  0  0  0  0  0  0  0
   -0.6050   -4.2880    0.1226 C   0  0  0  0  0  0  0  0  0  0  0  0
   -0.7172   -4.1715    1.5257 C   0  0  0  0  0  0  0  0  0  0  0  0
   -0.6000   -2.9285    2.1405 C   0  0  0  0  0  0  0  0  0  0  0  0
   -0.3671   -1.7998    1.3496 C   0  0  0  0  0  0  0  0  0  0  0  0
   -0.1815   -0.1525    1.8048 S   0  0  0  0  0  0  0  0  0  0  0  0
    0.3551    2.6884    0.6205 C   0  0  0  0  0  0  0  0  0  0  0  0
    0.5602    4.0006    0.2121 C   0  0  0  0  0  0  0  0  0  0  0  0
    0.6927    3.5025   -3.1523 H   0  0  0  0  0  0  0  0  0  0  0  0
    0.3232    1.1675   -2.4194 H   0  0  0  0  0  0  0  0  0  0  0  0
   -0.2832   -3.2566   -1.7444 H   0  0  0  0  0  0  0  0  0  0  0  0
   -0.6989   -5.2577   -0.3384 H   0  0  0  0  0  0  0  0  0  0  0  0
   -0.8951   -5.0546    2.1208 H   0  0  0  0  0  0  0  0  0  0  0  0
   -0.6795   -2.8268    3.2169 H   0  0  0  0  0  0  0  0  0  0  0  0
    0.2660    2.4834    1.6876 H   0  0  0  0  0  0  0  0  0  0  0  0
    0.6350    4.8013    0.9361 H   0  0  0  0  0  0  0  0  0  0  0  0
  1  2  1  0
  2  3  2  0
  3  4  1  0
  4  5  2  0
  5  6  1  0
  6  7  2  0
  7  8  1  0
  8  9  2  0
  9 10  1  0
 10 11  2  0
 11 12  1  0
 12 13  2  0
 13 14  1  0
  5 15  1  0
 15 16  2  0
 16  2  1  0
 14  6  1  0
 13  8  1  0
  3 17  1  0
  4 18  1  0
  9 19  1  0
 10 20  1  0
 11 21  1  0
 12 22  1  0
 15 23  1  0
 16 24  1  0
M  END
$$$$

     RDKit          3D

 24 26  0  0  0  0  0  0  0  0999 V2000
    4.0835    0.8588    4.0376 F   0  0  0  0  0  0  0  0  0  0  0  0
    3.1511    0.6997    3.0820 C   0  0  0  0  0  0  0  0  0  0  0  0
    2.3619   -0.4443    3.0979 C   0  0  0  0  0  0  0  0  0  0  0  0
    1.4023   -0.6067    2.1120 C   0  0  0  0  0  0  0  0  0  0  0  0
    1.2329    0.3696    1.1079 C   0  0  0  0  0  0  0  0  0  0  0  0
    0.2162    0.1892    0.0593 C   0  0  0  0  0  0  0  0  0  0  0  0
   -0.5859   -0.8340    0.0445 N   0  0  0  0  0  0  0  0  0  0  0  0
   -1.4472   -0.7571   -1.0314 C   0  0  0  0  0  0  0  0  0  0  0  0
   -2.4545   -1.7032   -1.3368 C   0  0  0  0  0  0  0  0  0  0  0  0
   -3.2482   -1.4926   -2.4483 C   0  0  0  0  0  0  0  0  0  0  0  0
   -3.0668   -0.3591   -3.2704 C   0  0  0  0  0  0  0  0  0  0  0  0
   -2.0747    0.5718   -2.9772 C   0  0  0  0  0  0  0  0  0  0  0  0
   -1.2655    0.3703   -1.8569 C   0  0  0  0  0  0  0  0  0  0  0  0
    0.0112    1.3366   -1.2372 S   0  0  0  0  0  0  0  0  0  0  0  0
    2.0480    1.5073    1.1318 C   0  0  0  0  0  0  0  0  0  0  0  0
    3.0111    1.6797    2.1182 C   0  0  0  0  0  0  0  0  0  0  0  0
    2.5046   -1.1962    3.8678 H   0  0  0  0  0  0  0  0  0  0  0  0
    0.7687   -1.4869    2.1151 H   0  0  0  0  0  0  0  0  0  0  0  0
   -2.5821   -2.5677   -0.6990 H   0  0  0  0  0  0  0  0  0  0  0  0
   -4.0207   -2.2038   -2.6892 H   0  0  0  0  0  0  0  0  0  0  0  0
   -3.7041   -0.2152   -4.1290 H   0  0  0  0  0  0  0  0  0  0  0  0
   -1.9247    1.4448   -3.6008 H   0  0  0  0  0  0  0  0  0  0  0  0
    1.9437    2.2770    0.3684 H   0  0  0  0  0  0  0  0  0  0  0  0
    3.6391    2.5618    2.1334 H   0  0  0  0  0  0  0  0  0  0  0  0
  1  2  1  0
  2  3  2  0
  3  4  1  0
  4  5  2  0
  5  6  1  0
  6  7  2  0
  7  8  1  0
  8  9  2  0
  9 10  1  0
 10 11  2  0
 11 12  1  0
 12 13  2  0
 13 14  1  0
  5 15  1  0
 15 16  2  0
 16  2  1  0
 14  6  1  0
 13  8  1  0
  3 17  1  0
  4 18  1  0
  9 19  1  0
 10 20  1  0
 11 21  1  0
 12 22  1  0
 15 23  1  0
 16 24  1  0
M  END
$$$$

     RDKit          3D

 24 26  0  0  0  0  0  0  0  0999 V2000
   -3.0966   -4.7600   -1.2111 F   0  0  0  0  0  0  0  0  0  0  0  0
   -2.4179   -3.6309   -0.9395 C   0  0  0  0  0  0  0  0  0  0  0  0
   -1.0379   -3.6965   -0.7996 C   0  0  0  0  0  0  0  0  0  0  0  0
   -0.3401   -2.5363   -0.5098 C   0  0  0  0  0  0  0  0  0  0  0  0
   -1.0178   -1.3077   -0.3684 C   0  0  0  0  0  0  0  0  0  0  0  0
   -0.2692   -0.0785   -0.0609 C   0  0  0  0  0  0  0  0  0  0  0  0
    1.0183   -0.0752    0.1243 N   0  0  0  0  0  0  0  0  0  0  0  0
    1.4625    1.2019    0.4020 C   0  0  0  0  0  0  0  0  0  0  0  0
    2.8077    1.5630    0.6613 C   0  0  0  0  0  0  0  0  0  0  0  0
    3.1011    2.8852    0.9331 C   0  0  0  0  0  0  0  0  0  0  0  0
    2.0879    3.8682    0.9526 C   0  0  0  0  0  0  0  0  0  0  0  0
    0.7655    3.5208    0.6938 C   0  0  0  0  0  0  0  0  0  0  0  0
    0.4539    2.1860    0.4243 C   0  0  0  0  0  0  0  0  0  0  0  0
   -1.0648    1.4648    0.0748 S   0  0  0  0  0  0  0  0  0  0  0  0
   -2.4092   -1.2857   -0.5286 C   0  0  0  0  0  0  0  0  0  0  0  0
   -3.1178   -2.4476   -0.8113 C   0  0  0  0  0  0  0  0  0  0  0  0
   -0.5223   -4.6432   -0.9129 H   0  0  0  0  0  0  0  0  0  0  0  0
    0.7366   -2.5769   -0.3960 H   0  0  0  0  0  0  0  0  0  0  0  0
    3.5743    0.8014    0.6387 H   0  0  0  0  0  0  0  0  0  0  0  0
    4.1222    3.1712    1.1309 H   0  0  0  0  0  0  0  0  0  0  0  0
    2.3440    4.8932    1.1687 H   0  0  0  0  0  0  0  0  0  0  0  0
   -0.0205    4.2670    0.6946 H   0  0  0  0  0  0  0  0  0  0  0  0
   -2.9657   -0.3552   -0.4284 H   0  0  0  0  0  0  0  0  0  0  0  0
   -4.1940   -2.4290   -0.9327 H   0  0  0  0  0  0  0  0  0  0  0  0
  1  2  1  0
  2  3  2  0
  3  4  1  0
  4  5  2  0
  5  6  1  0
  6  7  2  0
  7  8  1  0
  8  9  2  0
  9 10  1  0
 10 11  2  0
 11 12  1  0
 12 13  2  0
 13 14  1  0
  5 15  1  0
 15 16  2  0
 16  2  1  0
 14  6  1  0
 13  8  1  0
  3 17  1  0
  4 18  1  0
  9 19  1  0
 10 20  1  0
 11 21  1  0
 12 22  1  0
 15 23  1  0
 16 24  1  0
M  END
$$$$

     RDKit          3D

 24 26  0  0  0  0  0  0  0  0999 V2000
    2.6715   -1.5144    4.9271 F   0  0  0  0  0  0  0  0  0  0  0  0
    2.0227   -1.1329    3.8133 C   0  0  0  0  0  0  0  0  0  0  0  0
    2.4253   -1.6575    2.5919 C   0  0  0  0  0  0  0  0  0  0  0  0
    1.7578   -1.2677    1.4430 C   0  0  0  0  0  0  0  0  0  0  0  0
    0.6825   -0.3583    1.5129 C   0  0  0  0  0  0  0  0  0  0  0  0
   -0.0232    0.0477    0.2872 C   0  0  0  0  0  0  0  0  0  0  0  0
    0.3057   -0.4093   -0.8856 N   0  0  0  0  0  0  0  0  0  0  0  0
   -0.5051    0.1358   -1.8609 C   0  0  0  0  0  0  0  0  0  0  0  0
   -0.4147   -0.1437   -3.2449 C   0  0  0  0  0  0  0  0  0  0  0  0
   -1.2945    0.4833   -4.1080 C   0  0  0  0  0  0  0  0  0  0  0  0
   -2.2702    1.3841   -3.6281 C   0  0  0  0  0  0  0  0  0  0  0  0
   -2.3619    1.6646   -2.2678 C   0  0  0  0  0  0  0  0  0  0  0  0
   -1.4758    1.0395   -1.3860 C   0  0  0  0  0  0  0  0  0  0  0  0
   -1.3465    1.1784    0.3222 S   0  0  0  0  0  0  0  0  0  0  0  0
    0.3081    0.1444    2.7651 C   0  0  0  0  0  0  0  0  0  0  0  0
    0.9779   -0.2357    3.9217 C   0  0  0  0  0  0  0  0  0  0  0  0
    3.2515   -2.3590    2.5456 H   0  0  0  0  0  0  0  0  0  0  0  0
    2.0653   -1.6654    0.4842 H   0  0  0  0  0  0  0  0  0  0  0  0
    0.3385   -0.8328   -3.6002 H   0  0  0  0  0  0  0  0  0  0  0  0
   -1.2324    0.2797   -5.1645 H   0  0  0  0  0  0  0  0  0  0  0  0
   -2.9461    1.8588   -4.3240 H   0  0  0  0  0  0  0  0  0  0  0  0
   -3.1059    2.3523   -1.8847 H   0  0  0  0  0  0  0  0  0  0  0  0
   -0.5180    0.8507    2.8525 H   0  0  0  0  0  0  0  0  0  0  0  0
    0.6875    0.1577    4.8881 H   0  0  0  0  0  0  0  0  0  0  0  0
  1  2  1  0
  2  3  2  0
  3  4  1  0
  4  5  2  0
  5  6  1  0
  6  7  2  0
  7  8  1  0
  8  9  2  0
  9 10  1  0
 10 11  2  0
 11 12  1  0
 12 13  2  0
 13 14  1  0
  5 15  1  0
 15 16  2  0
 16  2  1  0
 14  6  1  0
 13  8  1  0
  3 17  1  0
  4 18  1  0
  9 19  1  0
 10 20  1  0
 11 21  1  0
 12 22  1  0
 15 23  1  0
 16 24  1  0
M  END
$$$$

     RDKit          3D

 24 26  0  0  0  0  0  0  0  0999 V2000
    1.5341    5.5637   -0.6401 F   0  0  0  0  0  0  0  0  0  0  0  0
    1.1975    4.2666   -0.5287 C   0  0  0  0  0  0  0  0  0  0  0  0
    0.5813    3.8337    0.6389 C   0  0  0  0  0  0  0  0  0  0  0  0
    0.2308    2.4977    0.7527 C   0  0  0  0  0  0  0  0  0  0  0  0
    0.4912    1.5960   -0.3005 C   0  0  0  0  0  0  0  0  0  0  0  0
    0.1118    0.1792   -0.1823 C   0  0  0  0  0  0  0  0  0  0  0  0
   -0.4673   -0.3067    0.8758 N   0  0  0  0  0  0  0  0  0  0  0  0
   -0.7008   -1.6579    0.7179 C   0  0  0  0  0  0  0  0  0  0  0  0
   -1.3103   -2.4959    1.6819 C   0  0  0  0  0  0  0  0  0  0  0  0
   -1.4770   -3.8350    1.3856 C   0  0  0  0  0  0  0  0  0  0  0  0
   -1.0521   -4.3686    0.1486 C   0  0  0  0  0  0  0  0  0  0  0  0
   -0.4497   -3.5497   -0.8017 C   0  0  0  0  0  0  0  0  0  0  0  0
   -0.2734   -2.1941   -0.5138 C   0  0  0  0  0  0  0  0  0  0  0  0
    0.4209   -0.9509   -1.4728 S   0  0  0  0  0  0  0  0  0  0  0  0
    1.1210    2.0750   -1.4569 C   0  0  0  0  0  0  0  0  0  0  0  0
    1.4763    3.4126   -1.5786 C   0  0  0  0  0  0  0  0  0  0  0  0
    0.3883    4.5317    1.4465 H   0  0  0  0  0  0  0  0  0  0  0  0
   -0.2518    2.1454    1.6576 H   0  0  0  0  0  0  0  0  0  0  0  0
   -1.6319   -2.0746    2.6250 H   0  0  0  0  0  0  0  0  0  0  0  0
   -1.9392   -4.4839    2.1114 H   0  0  0  0  0  0  0  0  0  0  0  0
   -1.1935   -5.4184   -0.0550 H   0  0  0  0  0  0  0  0  0  0  0  0
   -0.1172   -3.9471   -1.7536 H   0  0  0  0  0  0  0  0  0  0  0  0
    1.3516    1.4008   -2.2812 H   0  0  0  0  0  0  0  0  0  0  0  0
    1.9594    3.7806   -2.4764 H   0  0  0  0  0  0  0  0  0  0  0  0
  1  2  1  0
  2  3  2  0
  3  4  1  0
  4  5  2  0
  5  6  1  0
  6  7  2  0
  7  8  1  0
  8  9  2  0
  9 10  1  0
 10 11  2  0
 11 12  1  0
 12 13  2  0
 13 14  1  0
  5 15  1  0
 15 16  2  0
 16  2  1  0
 14  6  1  0
 13  8  1  0
  3 17  1  0
  4 18  1  0
  9 19  1  0
 10 20  1  0
 11 21  1  0
 12 22  1  0
 15 23  1  0
 16 24  1  0
M  END
$$$$

     RDKit          3D

 24 26  0  0  0  0  0  0  0  0999 V2000
    4.9459    2.1406    2.1635 F   0  0  0  0  0  0  0  0  0  0  0  0
    3.8205    1.6019    1.6588 C   0  0  0  0  0  0  0  0  0  0  0  0
    2.7030    2.4107    1.5010 C   0  0  0  0  0  0  0  0  0  0  0  0
    1.5444    1.8559    0.9825 C   0  0  0  0  0  0  0  0  0  0  0  0
    1.5020    0.4945    0.6156 C   0  0  0  0  0  0  0  0  0  0  0  0
    0.2697   -0.0852    0.0598 C   0  0  0  0  0  0  0  0  0  0  0  0
   -0.8076    0.6191   -0.1247 N   0  0  0  0  0  0  0  0  0  0  0  0
   -1.8140   -0.1669   -0.6486 C   0  0  0  0  0  0  0  0  0  0  0  0
   -3.1204    0.2809   -0.9564 C   0  0  0  0  0  0  0  0  0  0  0  0
   -4.0286   -0.6249   -1.4725 C   0  0  0  0  0  0  0  0  0  0  0  0
   -3.6665   -1.9700   -1.7039 C   0  0  0  0  0  0  0  0  0  0  0  0
   -2.3839   -2.4161   -1.3995 C   0  0  0  0  0  0  0  0  0  0  0  0
   -1.4603   -1.5135   -0.8667 C   0  0  0  0  0  0  0  0  0  0  0  0
    0.1689   -1.7644   -0.3890 S   0  0  0  0  0  0  0  0  0  0  0  0
    2.6506   -0.2859    0.7949 C   0  0  0  0  0  0  0  0  0  0  0  0
    3.8159    0.2627    1.3190 C   0  0  0  0  0  0  0  0  0  0  0  0
    2.7412    3.4577    1.7826 H   0  0  0  0  0  0  0  0  0  0  0  0
    0.6641    2.4753    0.8590 H   0  0  0  0  0  0  0  0  0  0  0  0
   -3.3843    1.3131   -0.7738 H   0  0  0  0  0  0  0  0  0  0  0  0
   -5.0287   -0.2973   -1.7029 H   0  0  0  0  0  0  0  0  0  0  0  0
   -4.3931   -2.6540   -2.1166 H   0  0  0  0  0  0  0  0  0  0  0  0
   -2.0918   -3.4454   -1.5746 H   0  0  0  0  0  0  0  0  0  0  0  0
    2.6525   -1.3437    0.5309 H   0  0  0  0  0  0  0  0  0  0  0  0
    4.7005   -0.3451    1.4615 H   0  0  0  0  0  0  0  0  0  0  0  0
  1  2  1  0
  2  3  2  0
  3  4  1  0
  4  5  2  0
  5  6  1  0
  6  7  2  0
  7  8  1  0
  8  9  2  0
  9 10  1  0
 10 11  2  0
 11 12  1  0
 12 13  2  0
 13 14  1  0
  5 15  1  0
 15 16  2  0
 16  2  1  0
 14  6  1  0
 13  8  1  0
  3 17  1  0
  4 18  1  0
  9 19  1  0
 10 20  1  0
 11 21  1  0
 12 22  1  0
 15 23  1  0
 16 24  1  0
M  END
$$$$

     RDKit          3D

 24 26  0  0  0  0  0  0  0  0999 V2000
   -4.3251    0.7660   -3.8010 F   0  0  0  0  0  0  0  0  0  0  0  0
   -3.2987    0.6116   -2.9463 C   0  0  0  0  0  0  0  0  0  0  0  0
   -3.4962   -0.1287   -1.7885 C   0  0  0  0  0  0  0  0  0  0  0  0
   -2.4390   -0.2827   -0.9059 C   0  0  0  0  0  0  0  0  0  0  0  0
   -1.1827    0.2983   -1.1791 C   0  0  0  0  0  0  0  0  0  0  0  0
   -0.0620    0.1364   -0.2384 C   0  0  0  0  0  0  0  0  0  0  0  0
   -0.1744   -0.5161    0.8814 N   0  0  0  0  0  0  0  0  0  0  0  0
    1.0278   -0.5294    1.5564 C   0  0  0  0  0  0  0  0  0  0  0  0
    1.2548   -1.1551    2.8052 C   0  0  0  0  0  0  0  0  0  0  0  0
    2.5188   -1.0914    3.3583 C   0  0  0  0  0  0  0  0  0  0  0  0
    3.5712   -0.4188    2.6987 C   0  0  0  0  0  0  0  0  0  0  0  0
    3.3521    0.2038    1.4736 C   0  0  0  0  0  0  0  0  0  0  0  0
    2.0776    0.1514    0.9069 C   0  0  0  0  0  0  0  0  0  0  0  0
    1.5088    0.8104   -0.5723 S   0  0  0  0  0  0  0  0  0  0  0  0
   -1.0256    1.0305   -2.3626 C   0  0  0  0  0  0  0  0  0  0  0  0
   -2.0822    1.1932   -3.2513 C   0  0  0  0  0  0  0  0  0  0  0  0
   -4.4655   -0.5714   -1.5814 H   0  0  0  0  0  0  0  0  0  0  0  0
   -2.5813   -0.8599   -0.0006 H   0  0  0  0  0  0  0  0  0  0  0  0
    0.4411   -1.6689    3.2994 H   0  0  0  0  0  0  0  0  0  0  0  0
    2.7047   -1.5642    4.3085 H   0  0  0  0  0  0  0  0  0  0  0  0
    4.5498   -0.3908    3.1501 H   0  0  0  0  0  0  0  0  0  0  0  0
    4.1504    0.7248    0.9587 H   0  0  0  0  0  0  0  0  0  0  0  0
   -0.0660    1.4874   -2.6070 H   0  0  0  0  0  0  0  0  0  0  0  0
   -1.9584    1.7633   -4.1628 H   0  0  0  0  0  0  0  0  0  0  0  0
  1  2  1  0
  2  3  2  0
  3  4  1  0
  4  5  2  0
  5  6  1  0
  6  7  2  0
  7  8  1  0
  8  9  2  0
  9 10  1  0
 10 11  2  0
 11 12  1  0
 12 13  2  0
 13 14  1  0
  5 15  1  0
 15 16  2  0
 16  2  1  0
 14  6  1  0
 13  8  1  0
  3 17  1  0
  4 18  1  0
  9 19  1  0
 10 20  1  0
 11 21  1  0
 12 22  1  0
 15 23  1  0
 16 24  1  0
M  END
$$$$

     RDKit          3D

 24 26  0  0  0  0  0  0  0  0999 V2000
    1.5098   -5.3534    1.6659 F   0  0  0  0  0  0  0  0  0  0  0  0
    1.1262   -4.1129    1.3142 C   0  0  0  0  0  0  0  0  0  0  0  0
    1.6520   -3.5534    0.1579 C   0  0  0  0  0  0  0  0  0  0  0  0
    1.2622   -2.2736   -0.2003 C   0  0  0  0  0  0  0  0  0  0  0  0
    0.3424   -1.5539    0.5910 C   0  0  0  0  0  0  0  0  0  0  0  0
   -0.0646   -0.1936    0.2072 C   0  0  0  0  0  0  0  0  0  0  0  0
    0.3919    0.3922   -0.8612 N   0  0  0  0  0  0  0  0  0  0  0  0
   -0.1428    1.6578   -0.9835 C   0  0  0  0  0  0  0  0  0  0  0  0
    0.1416    2.5635   -2.0337 C   0  0  0  0  0  0  0  0  0  0  0  0
   -0.4651    3.8053   -2.0229 C   0  0  0  0  0  0  0  0  0  0  0  0
   -1.3540    4.1737   -0.9892 C   0  0  0  0  0  0  0  0  0  0  0  0
   -1.6359    3.2878    0.0469 C   0  0  0  0  0  0  0  0  0  0  0  0
   -1.0306    2.0284    0.0459 C   0  0  0  0  0  0  0  0  0  0  0  0
   -1.1907    0.7305    1.1617 S   0  0  0  0  0  0  0  0  0  0  0  0
   -0.1688   -2.1598    1.7449 C   0  0  0  0  0  0  0  0  0  0  0  0
    0.2218   -3.4416    2.1138 C   0  0  0  0  0  0  0  0  0  0  0  0
    2.3605   -4.1106   -0.4455 H   0  0  0  0  0  0  0  0  0  0  0  0
    1.6621   -1.8261   -1.1020 H   0  0  0  0  0  0  0  0  0  0  0  0
    0.8270    2.2685   -2.8174 H   0  0  0  0  0  0  0  0  0  0  0  0
   -0.2587    4.5030   -2.8185 H   0  0  0  0  0  0  0  0  0  0  0  0
   -1.8135    5.1504   -1.0050 H   0  0  0  0  0  0  0  0  0  0  0  0
   -2.3142    3.5594    0.8471 H   0  0  0  0  0  0  0  0  0  0  0  0
   -0.8807   -1.6318    2.3784 H   0  0  0  0  0  0  0  0  0  0  0  0
   -0.1780   -3.9097    3.0043 H   0  0  0  0  0  0  0  0  0  0  0  0
  1  2  1  0
  2  3  2  0
  3  4  1  0
  4  5  2  0
  5  6  1  0
  6  7  2  0
  7  8  1  0
  8  9  2  0
  9 10  1  0
 10 11  2  0
 11 12  1  0
 12 13  2  0
 13 14  1  0
  5 15  1  0
 15 16  2  0
 16  2  1  0
 14  6  1  0
 13  8  1  0
  3 17  1  0
  4 18  1  0
  9 19  1  0
 10 20  1  0
 11 21  1  0
 12 22  1  0
 15 23  1  0
 16 24  1  0
M  END
$$$$

     RDKit          3D

 24 26  0  0  0  0  0  0  0  0999 V2000
   -5.4649   -0.1465   -1.9552 F   0  0  0  0  0  0  0  0  0  0  0  0
   -4.1877   -0.0848   -1.5382 C   0  0  0  0  0  0  0  0  0  0  0  0
   -3.8757   -0.5572   -0.2700 C   0  0  0  0  0  0  0  0  0  0  0  0
   -2.5598   -0.4996    0.1584 C   0  0  0  0  0  0  0  0  0  0  0  0
   -1.5531    0.0163   -0.6841 C   0  0  0  0  0  0  0  0  0  0  0  0
   -0.1536    0.0564   -0.2332 C   0  0  0  0  0  0  0  0  0  0  0  0
    0.2090   -0.3366    0.9527 N   0  0  0  0  0  0  0  0  0  0  0  0
    1.5709   -0.1816    1.1158 C   0  0  0  0  0  0  0  0  0  0  0  0
    2.2930   -0.5002    2.2917 C   0  0  0  0  0  0  0  0  0  0  0  0
    3.6584   -0.2903    2.3083 C   0  0  0  0  0  0  0  0  0  0  0  0
    4.3315    0.2321    1.1814 C   0  0  0  0  0  0  0  0  0  0  0  0
    3.6258    0.5545    0.0257 C   0  0  0  0  0  0  0  0  0  0  0  0
    2.2439    0.3484   -0.0038 C   0  0  0  0  0  0  0  0  0  0  0  0
    1.1185    0.6417   -1.2685 S   0  0  0  0  0  0  0  0  0  0  0  0
   -1.9131    0.4893   -1.9516 C   0  0  0  0  0  0  0  0  0  0  0  0
   -3.2325    0.4440   -2.3855 C   0  0  0  0  0  0  0  0  0  0  0  0
   -4.6543   -0.9576    0.3713 H   0  0  0  0  0  0  0  0  0  0  0  0
   -2.3048   -0.8599    1.1476 H   0  0  0  0  0  0  0  0  0  0  0  0
    1.7667   -0.8964    3.1493 H   0  0  0  0  0  0  0  0  0  0  0  0
    4.2199   -0.5307    3.1974 H   0  0  0  0  0  0  0  0  0  0  0  0
    5.3991    0.3829    1.2224 H   0  0  0  0  0  0  0  0  0  0  0  0
    4.1305    0.9556   -0.8466 H   0  0  0  0  0  0  0  0  0  0  0  0
   -1.1600    0.9073   -2.6202 H   0  0  0  0  0  0  0  0  0  0  0  0
   -3.5077    0.8130   -3.3651 H   0  0  0  0  0  0  0  0  0  0  0  0
  1  2  1  0
  2  3  2  0
  3  4  1  0
  4  5  2  0
  5  6  1  0
  6  7  2  0
  7  8  1  0
  8  9  2  0
  9 10  1  0
 10 11  2  0
 11 12  1  0
 12 13  2  0
 13 14  1  0
  5 15  1  0
 15 16  2  0
 16  2  1  0
 14  6  1  0
 13  8  1  0
  3 17  1  0
  4 18  1  0
  9 19  1  0
 10 20  1  0
 11 21  1  0
 12 22  1  0
 15 23  1  0
 16 24  1  0
M  END
$$$$

     RDKit          3D

 24 26  0  0  0  0  0  0  0  0999 V2000
   -2.5653    3.9129   -3.4382 F   0  0  0  0  0  0  0  0  0  0  0  0
   -2.0050    2.9737   -2.6558 C   0  0  0  0  0  0  0  0  0  0  0  0
   -1.1488    3.3728   -1.6380 C   0  0  0  0  0  0  0  0  0  0  0  0
   -0.5635    2.4039   -0.8397 C   0  0  0  0  0  0  0  0  0  0  0  0
   -0.8330    1.0354   -1.0560 C   0  0  0  0  0  0  0  0  0  0  0  0
   -0.1998    0.0082   -0.2128 C   0  0  0  0  0  0  0  0  0  0  0  0
    0.6325    0.3112    0.7384 N   0  0  0  0  0  0  0  0  0  0  0  0
    1.0828   -0.8313    1.3669 C   0  0  0  0  0  0  0  0  0  0  0  0
    2.0020   -0.8543    2.4417 C   0  0  0  0  0  0  0  0  0  0  0  0
    2.3740   -2.0749    2.9709 C   0  0  0  0  0  0  0  0  0  0  0  0
    1.8461   -3.2815    2.4620 C   0  0  0  0  0  0  0  0  0  0  0  0
    0.9394   -3.2644    1.4063 C   0  0  0  0  0  0  0  0  0  0  0  0
    0.5628   -2.0361    0.8555 C   0  0  0  0  0  0  0  0  0  0  0  0
   -0.5190   -1.6910   -0.4340 S   0  0  0  0  0  0  0  0  0  0  0  0
   -1.7090    0.6783   -2.0884 C   0  0  0  0  0  0  0  0  0  0  0  0
   -2.2967    1.6446   -2.8961 C   0  0  0  0  0  0  0  0  0  0  0  0
   -0.9397    4.4257   -1.4801 H   0  0  0  0  0  0  0  0  0  0  0  0
    0.1021    2.7047   -0.0388 H   0  0  0  0  0  0  0  0  0  0  0  0
    2.3951    0.0770    2.8204 H   0  0  0  0  0  0  0  0  0  0  0  0
    3.0783   -2.1058    3.7854 H   0  0  0  0  0  0  0  0  0  0  0  0
    2.1526   -4.2206    2.8959 H   0  0  0  0  0  0  0  0  0  0  0  0
    0.5261   -4.1841    1.0095 H   0  0  0  0  0  0  0  0  0  0  0  0
   -1.9420   -0.3693   -2.2800 H   0  0  0  0  0  0  0  0  0  0  0  0
   -2.9721    1.3649   -3.6949 H   0  0  0  0  0  0  0  0  0  0  0  0
  1  2  1  0
  2  3  2  0
  3  4  1  0
  4  5  2  0
  5  6  1  0
  6  7  2  0
  7  8  1  0
  8  9  2  0
  9 10  1  0
 10 11  2  0
 11 12  1  0
 12 13  2  0
 13 14  1  0
  5 15  1  0
 15 16  2  0
 16  2  1  0
 14  6  1  0
 13  8  1  0
  3 17  1  0
  4 18  1  0
  9 19  1  0
 10 20  1  0
 11 21  1  0
 12 22  1  0
 15 23  1  0
 16 24  1  0
M  END
$$$$

     RDKit          3D

 24 26  0  0  0  0  0  0  0  0999 V2000
   -4.9381   -1.8065    2.4627 F   0  0  0  0  0  0  0  0  0  0  0  0
   -3.7818   -1.3662    1.9328 C   0  0  0  0  0  0  0  0  0  0  0  0
   -3.4909   -1.6752    0.6088 C   0  0  0  0  0  0  0  0  0  0  0  0
   -2.2984   -1.2267    0.0642 C   0  0  0  0  0  0  0  0  0  0  0  0
   -1.4023   -0.4589    0.8373 C   0  0  0  0  0  0  0  0  0  0  0  0
   -0.1428    0.0229    0.2508 C   0  0  0  0  0  0  0  0  0  0  0  0
    0.2284   -0.2965   -0.9536 N   0  0  0  0  0  0  0  0  0  0  0  0
    1.4406    0.2878   -1.2547 C   0  0  0  0  0  0  0  0  0  0  0  0
    2.1327    0.1390   -2.4802 C   0  0  0  0  0  0  0  0  0  0  0  0
    3.3442    0.7830   -2.6412 C   0  0  0  0  0  0  0  0  0  0  0  0
    3.8874    1.5829   -1.6117 C   0  0  0  0  0  0  0  0  0  0  0  0
    3.2128    1.7307   -0.4038 C   0  0  0  0  0  0  0  0  0  0  0  0
    1.9905    1.0762   -0.2251 C   0  0  0  0  0  0  0  0  0  0  0  0
    0.9387    1.0615    1.1347 S   0  0  0  0  0  0  0  0  0  0  0  0
   -1.7379   -0.1656    2.1650 C   0  0  0  0  0  0  0  0  0  0  0  0
   -2.9267   -0.6206    2.7222 C   0  0  0  0  0  0  0  0  0  0  0  0
   -4.1887   -2.2621    0.0197 H   0  0  0  0  0  0  0  0  0  0  0  0
   -2.0559   -1.4622   -0.9655 H   0  0  0  0  0  0  0  0  0  0  0  0
    1.7022   -0.4731   -3.2597 H   0  0  0  0  0  0  0  0  0  0  0  0
    3.8826    0.6764   -3.5694 H   0  0  0  0  0  0  0  0  0  0  0  0
    4.8337    2.0794   -1.7675 H   0  0  0  0  0  0  0  0  0  0  0  0
    3.6189    2.3400    0.3946 H   0  0  0  0  0  0  0  0  0  0  0  0
   -1.0677    0.4259    2.7887 H   0  0  0  0  0  0  0  0  0  0  0  0
   -3.1815   -0.3924    3.7508 H   0  0  0  0  0  0  0  0  0  0  0  0
  1  2  1  0
  2  3  2  0
  3  4  1  0
  4  5  2  0
  5  6  1  0
  6  7  2  0
  7  8  1  0
  8  9  2  0
  9 10  1  0
 10 11  2  0
 11 12  1  0
 12 13  2  0
 13 14  1  0
  5 15  1  0
 15 16  2  0
 16  2  1  0
 14  6  1  0
 13  8  1  0
  3 17  1  0
  4 18  1  0
  9 19  1  0
 10 20  1  0
 11 21  1  0
 12 22  1  0
 15 23  1  0
 16 24  1  0
M  END
$$$$
