
     RDKit          3D

 24 25  0  0  0  0  0  0  0  0999 V2000
    1.0525    1.1305    4.1053 C   0  0  0  0  0  0  0  0  0  0  0  0
    0.7084    0.7791    2.6975 C   0  0  0  0  0  0  0  0  0  0  0  0
    1.5197    1.1497    1.6197 C   0  0  0  0  0  0  0  0  0  0  0  0
    1.1789    0.7869    0.3369 C   0  0  0  0  0  0  0  0  0  0  0  0
    0.0140    0.0375    0.1215 C   0  0  0  0  0  0  0  0  0  0  0  0
   -0.4014   -0.4001   -1.2428 C   0  0  0  0  0  0  0  0  0  0  0  0
   -1.7333   -0.7694   -1.4848 C   0  0  0  0  0  0  0  0  0  0  0  0
   -2.1514   -1.1690   -2.7468 C   0  0  0  0  0  0  0  0  0  0  0  0
   -1.2219   -1.2089   -3.7675 C   0  0  0  0  0  0  0  0  0  0  0  0
   -1.6229   -1.6010   -4.9932 F   0  0  0  0  0  0  0  0  0  0  0  0
    0.0983   -0.8707   -3.5783 C   0  0  0  0  0  0  0  0  0  0  0  0
    0.5065   -0.4700   -2.3117 C   0  0  0  0  0  0  0  0  0  0  0  0
   -0.7783   -0.3105    1.1421 N   0  0  0  0  0  0  0  0  0  0  0  0
   -0.4399    0.0424    2.3728 C   0  0  0  0  0  0  0  0  0  0  0  0
    0.2101    0.9587    4.7808 H   0  0  0  0  0  0  0  0  0  0  0  0
    1.3527    2.1746    4.1823 H   0  0  0  0  0  0  0  0  0  0  0  0
    1.8929    0.5360    4.4536 H   0  0  0  0  0  0  0  0  0  0  0  0
    2.4145    1.7287    1.8051 H   0  0  0  0  0  0  0  0  0  0  0  0
    1.7885    1.0885   -0.5011 H   0  0  0  0  0  0  0  0  0  0  0  0
   -2.4448   -0.7518   -0.6715 H   0  0  0  0  0  0  0  0  0  0  0  0
   -3.1821   -1.4430   -2.9338 H   0  0  0  0  0  0  0  0  0  0  0  0
    0.8051   -0.9236   -4.3938 H   0  0  0  0  0  0  0  0  0  0  0  0
    1.5456   -0.2242   -2.1577 H   0  0  0  0  0  0  0  0  0  0  0  0
   -1.1118   -0.2704    3.1652 H   0  0  0  0  0  0  0  0  0  0  0  0
  1  2  1  0
  2  3  2  0
  3  4  1  0
  4  5  2  0
  5  6  1  0
  6  7  2  0
  7  8  1  0
  8  9  2  0
  9 10  1  0
  9 11  1  0
 11 12  2  0
  5 13  1  0
 13 14  2  0
 14  2  1  0
 12  6  1  0
  1 15  1  0
  1 16  1  0
  1 17  1  0
  3 18  1  0
  4 19  1  0
  7 20  1  0
  8 21  1  0
 11 22  1  0
 12 23  1  0
 14 24  1  0
M  END
$$$$

     RDKit          3D

 24 25  0  0  0  0  0  0  0  0999 V2000
   -1.8434    3.2827   -2.2540 C   0  0  0  0  0  0  0  0  0  0  0  0
   -1.1880    2.1680   -1.5093 C   0  0  0  0  0  0  0  0  0  0  0  0
    0.1831    1.9058   -1.6006 C   0  0  0  0  0  0  0  0  0  0  0  0
    0.7452    0.8705   -0.8893 C   0  0  0  0  0  0  0  0  0  0  0  0
   -0.0706    0.0841   -0.0658 C   0  0  0  0  0  0  0  0  0  0  0  0
    0.4799   -1.0496    0.7311 C   0  0  0  0  0  0  0  0  0  0  0  0
   -0.2268   -1.5420    1.8379 C   0  0  0  0  0  0  0  0  0  0  0  0
    0.2781   -2.5813    2.6077 C   0  0  0  0  0  0  0  0  0  0  0  0
    1.4900   -3.1405    2.2497 C   0  0  0  0  0  0  0  0  0  0  0  0
    1.9808   -4.1460    2.9990 F   0  0  0  0  0  0  0  0  0  0  0  0
    2.2120   -2.7069    1.1631 C   0  0  0  0  0  0  0  0  0  0  0  0
    1.7029   -1.6589    0.4063 C   0  0  0  0  0  0  0  0  0  0  0  0
   -1.3821    0.3318    0.0400 N   0  0  0  0  0  0  0  0  0  0  0  0
   -1.9138    1.3269   -0.6547 C   0  0  0  0  0  0  0  0  0  0  0  0
   -2.8650    3.0232   -2.5357 H   0  0  0  0  0  0  0  0  0  0  0  0
   -1.8871    4.1816   -1.6450 H   0  0  0  0  0  0  0  0  0  0  0  0
   -1.2852    3.5301   -3.1591 H   0  0  0  0  0  0  0  0  0  0  0  0
    0.8008    2.5231   -2.2371 H   0  0  0  0  0  0  0  0  0  0  0  0
    1.8028    0.6682   -0.9577 H   0  0  0  0  0  0  0  0  0  0  0  0
   -1.1794   -1.1042    2.0975 H   0  0  0  0  0  0  0  0  0  0  0  0
   -0.2620   -2.9506    3.4705 H   0  0  0  0  0  0  0  0  0  0  0  0
    3.1536   -3.1684    0.9014 H   0  0  0  0  0  0  0  0  0  0  0  0
    2.2592   -1.3240   -0.4533 H   0  0  0  0  0  0  0  0  0  0  0  0
   -2.9849    1.4761   -0.5425 H   0  0  0  0  0  0  0  0  0  0  0  0
  1  2  1  0
  2  3  2  0
  3  4  1  0
  4  5  2  0
  5  6  1  0
  6  7  2  0
  7  8  1  0
  8  9  2  0
  9 10  1  0
  9 11  1  0
 11 12  2  0
  5 13  1  0
 13 14  2  0
 14  2  1  0
 12  6  1  0
  1 15  1  0
  1 16  1  0
  1 17  1  0
  3 18  1  0
  4 19  1  0
  7 20  1  0
  8 21  1  0
 11 22  1  0
 12 23  1  0
 14 24  1  0
M  END
$$$$

     RDKit          3D

 24 25  0  0  0  0  0  0  0  0999 V2000
    0.4280    0.0146    4.3684 C   0  0  0  0  0  0  0  0  0  0  0  0
    0.2778   -0.0419    2.8845 C   0  0  0  0  0  0  0  0  0  0  0  0
    0.6763   -1.1466    2.1258 C   0  0  0  0  0  0  0  0  0  0  0  0
    0.5351   -1.1393    0.7552 C   0  0  0  0  0  0  0  0  0  0  0  0
   -0.0028   -0.0099    0.1263 C   0  0  0  0  0  0  0  0  0  0  0  0
   -0.1659    0.0737   -1.3554 C   0  0  0  0  0  0  0  0  0  0  0  0
   -0.9140    1.1226   -1.9120 C   0  0  0  0  0  0  0  0  0  0  0  0
   -1.0884    1.2306   -3.2851 C   0  0  0  0  0  0  0  0  0  0  0  0
   -0.4984    0.2852   -4.1035 C   0  0  0  0  0  0  0  0  0  0  0  0
   -0.6634    0.3946   -5.4347 F   0  0  0  0  0  0  0  0  0  0  0  0
    0.2460   -0.7592   -3.6077 C   0  0  0  0  0  0  0  0  0  0  0  0
    0.4111   -0.8615   -2.2325 C   0  0  0  0  0  0  0  0  0  0  0  0
   -0.3964    1.0528    0.8456 N   0  0  0  0  0  0  0  0  0  0  0  0
   -0.2602    1.0323    2.1606 C   0  0  0  0  0  0  0  0  0  0  0  0
    0.4778   -0.9854    4.8001 H   0  0  0  0  0  0  0  0  0  0  0  0
    1.3422    0.5360    4.6449 H   0  0  0  0  0  0  0  0  0  0  0  0
   -0.4026    0.5518    4.8256 H   0  0  0  0  0  0  0  0  0  0  0  0
    1.0968   -2.0081    2.6219 H   0  0  0  0  0  0  0  0  0  0  0  0
    0.8259   -1.9977    0.1715 H   0  0  0  0  0  0  0  0  0  0  0  0
   -1.3619    1.8578   -1.2585 H   0  0  0  0  0  0  0  0  0  0  0  0
   -1.6688    2.0373   -3.7135 H   0  0  0  0  0  0  0  0  0  0  0  0
    0.6947   -1.4847   -4.2712 H   0  0  0  0  0  0  0  0  0  0  0  0
    1.0060   -1.6746   -1.8492 H   0  0  0  0  0  0  0  0  0  0  0  0
   -0.5950    1.9196    2.6930 H   0  0  0  0  0  0  0  0  0  0  0  0
  1  2  1  0
  2  3  2  0
  3  4  1  0
  4  5  2  0
  5  6  1  0
  6  7  2  0
  7  8  1  0
  8  9  2  0
  9 10  1  0
  9 11  1  0
 11 12  2  0
  5 13  1  0
 13 14  2  0
 14  2  1  0
 12  6  1  0
  1 15  1  0
  1 16  1  0
  1 17  1  0
  3 18  1  0
  4 19  1  0
  7 20  1  0
  8 21  1  0
 11 22  1  0
 12 23  1  0
 14 24  1  0
M  END
$$$$

     RDKit          3D

 24 25  0  0  0  0  0  0  0  0999 V2000
   -2.1654   -3.8185    0.0739 C   0  0  0  0  0  0  0  0  0  0  0  0
   -1.4210   -2.5254    0.0920 C   0  0  0  0  0  0  0  0  0  0  0  0
   -1.0205   -1.9008    1.2773 C   0  0  0  0  0  0  0  0  0  0  0  0
   -0.3421   -0.7039    1.2401 C   0  0  0  0  0  0  0  0  0  0  0  0
   -0.0515   -0.1159    0.0030 C   0  0  0  0  0  0  0  0  0  0  0  0
    0.6680    1.1893   -0.1076 C   0  0  0  0  0  0  0  0  0  0  0  0
    1.0086    1.6863   -1.3751 C   0  0  0  0  0  0  0  0  0  0  0  0
    1.6851    2.8893   -1.5167 C   0  0  0  0  0  0  0  0  0  0  0  0
    2.0133    3.6023   -0.3788 C   0  0  0  0  0  0  0  0  0  0  0  0
    2.6717    4.7670   -0.5152 F   0  0  0  0  0  0  0  0  0  0  0  0
    1.6967    3.1641    0.8839 C   0  0  0  0  0  0  0  0  0  0  0  0
    1.0227    1.9580    1.0159 C   0  0  0  0  0  0  0  0  0  0  0  0
   -0.4164   -0.7154   -1.1434 N   0  0  0  0  0  0  0  0  0  0  0  0
   -1.0718   -1.8635   -1.0950 C   0  0  0  0  0  0  0  0  0  0  0  0
   -2.9936   -3.7839   -0.6351 H   0  0  0  0  0  0  0  0  0  0  0  0
   -1.5162   -4.6345   -0.2285 H   0  0  0  0  0  0  0  0  0  0  0  0
   -2.5659   -4.0586    1.0603 H   0  0  0  0  0  0  0  0  0  0  0  0
   -1.2466   -2.3612    2.2262 H   0  0  0  0  0  0  0  0  0  0  0  0
   -0.0346   -0.2257    2.1561 H   0  0  0  0  0  0  0  0  0  0  0  0
    0.7434    1.1203   -2.2536 H   0  0  0  0  0  0  0  0  0  0  0  0
    1.9495    3.2701   -2.4941 H   0  0  0  0  0  0  0  0  0  0  0  0
    1.9673    3.7426    1.7555 H   0  0  0  0  0  0  0  0  0  0  0  0
    0.7695    1.6239    2.0087 H   0  0  0  0  0  0  0  0  0  0  0  0
   -1.3503   -2.3060   -2.0498 H   0  0  0  0  0  0  0  0  0  0  0  0
  1  2  1  0
  2  3  2  0
  3  4  1  0
  4  5  2  0
  5  6  1  0
  6  7  2  0
  7  8  1  0
  8  9  2  0
  9 10  1  0
  9 11  1  0
 11 12  2  0
  5 13  1  0
 13 14  2  0
 14  2  1  0
 12  6  1  0
  1 15  1  0
  1 16  1  0
  1 17  1  0
  3 18  1  0
  4 19  1  0
  7 20  1  0
  8 21  1  0
 11 22  1  0
 12 23  1  0
 14 24  1  0
M  END
$$$$

     RDKit          3D

 24 25  0  0  0  0  0  0  0  0999 V2000
   -1.2442   -2.2562    3.5511 C   0  0  0  0  0  0  0  0  0  0  0  0
   -0.8309   -1.4628    2.3567 C   0  0  0  0  0  0  0  0  0  0  0  0
   -0.9802   -0.0720    2.2974 C   0  0  0  0  0  0  0  0  0  0  0  0
   -0.5883    0.6231    1.1759 C   0  0  0  0  0  0  0  0  0  0  0  0
   -0.0352   -0.0762    0.0958 C   0  0  0  0  0  0  0  0  0  0  0  0
    0.4067    0.6197   -1.1471 C   0  0  0  0  0  0  0  0  0  0  0  0
    1.3078   -0.0111   -2.0170 C   0  0  0  0  0  0  0  0  0  0  0  0
    1.7495    0.6154   -3.1745 C   0  0  0  0  0  0  0  0  0  0  0  0
    1.2667    1.8770   -3.4663 C   0  0  0  0  0  0  0  0  0  0  0  0
    1.6945    2.4852   -4.5897 F   0  0  0  0  0  0  0  0  0  0  0  0
    0.3711    2.5325   -2.6533 C   0  0  0  0  0  0  0  0  0  0  0  0
   -0.0581    1.8993   -1.4924 C   0  0  0  0  0  0  0  0  0  0  0  0
    0.1233   -1.4048    0.1429 N   0  0  0  0  0  0  0  0  0  0  0  0
   -0.2609   -2.0645    1.2258 C   0  0  0  0  0  0  0  0  0  0  0  0
   -2.2949   -2.0858    3.7835 H   0  0  0  0  0  0  0  0  0  0  0  0
   -0.6771   -1.9531    4.4268 H   0  0  0  0  0  0  0  0  0  0  0  0
   -1.0966   -3.3281    3.3941 H   0  0  0  0  0  0  0  0  0  0  0  0
   -1.4063    0.4529    3.1420 H   0  0  0  0  0  0  0  0  0  0  0  0
   -0.6886    1.6974    1.1297 H   0  0  0  0  0  0  0  0  0  0  0  0
    1.6656   -1.0024   -1.7801 H   0  0  0  0  0  0  0  0  0  0  0  0
    2.4539    0.1306   -3.8385 H   0  0  0  0  0  0  0  0  0  0  0  0
    0.0053    3.5165   -2.9118 H   0  0  0  0  0  0  0  0  0  0  0  0
   -0.7708    2.4062   -0.8611 H   0  0  0  0  0  0  0  0  0  0  0  0
   -0.1126   -3.1387    1.2101 H   0  0  0  0  0  0  0  0  0  0  0  0
  1  2  1  0
  2  3  2  0
  3  4  1  0
  4  5  2  0
  5  6  1  0
  6  7  2  0
  7  8  1  0
  8  9  2  0
  9 10  1  0
  9 11  1  0
 11 12  2  0
  5 13  1  0
 13 14  2  0
 14  2  1  0
 12  6  1  0
  1 15  1  0
  1 16  1  0
  1 17  1  0
  3 18  1  0
  4 19  1  0
  7 20  1  0
  8 21  1  0
 11 22  1  0
 12 23  1  0
 14 24  1  0
M  END
$$$$

     RDKit          3D

 24 25  0  0  0  0  0  0  0  0999 V2000
    1.4325    3.6676   -1.9387 C   0  0  0  0  0  0  0  0  0  0  0  0
    0.9486    2.3944   -1.3295 C   0  0  0  0  0  0  0  0  0  0  0  0
    1.0913    1.1504   -1.9521 C   0  0  0  0  0  0  0  0  0  0  0  0
    0.6370    0.0056   -1.3346 C   0  0  0  0  0  0  0  0  0  0  0  0
    0.0364    0.0977   -0.0729 C   0  0  0  0  0  0  0  0  0  0  0  0
   -0.4729   -1.0986    0.6630 C   0  0  0  0  0  0  0  0  0  0  0  0
   -1.0323   -0.9352    1.9412 C   0  0  0  0  0  0  0  0  0  0  0  0
   -1.5120   -2.0198    2.6615 C   0  0  0  0  0  0  0  0  0  0  0  0
   -1.4335   -3.2771    2.0943 C   0  0  0  0  0  0  0  0  0  0  0  0
   -1.8966   -4.3296    2.7938 F   0  0  0  0  0  0  0  0  0  0  0  0
   -0.8999   -3.4904    0.8451 C   0  0  0  0  0  0  0  0  0  0  0  0
   -0.4186   -2.3998    0.1320 C   0  0  0  0  0  0  0  0  0  0  0  0
   -0.1042    1.2882    0.5341 N   0  0  0  0  0  0  0  0  0  0  0  0
    0.3323    2.3803   -0.0708 C   0  0  0  0  0  0  0  0  0  0  0  0
    1.5894    3.5570   -3.0124 H   0  0  0  0  0  0  0  0  0  0  0  0
    2.3775    3.9699   -1.4977 H   0  0  0  0  0  0  0  0  0  0  0  0
    0.7225    4.4780   -1.7724 H   0  0  0  0  0  0  0  0  0  0  0  0
    1.5595    1.0908   -2.9225 H   0  0  0  0  0  0  0  0  0  0  0  0
    0.7415   -0.9534   -1.8173 H   0  0  0  0  0  0  0  0  0  0  0  0
   -1.0900    0.0521    2.3712 H   0  0  0  0  0  0  0  0  0  0  0  0
   -1.9429   -1.8903    3.6455 H   0  0  0  0  0  0  0  0  0  0  0  0
   -0.8527   -4.4861    0.4275 H   0  0  0  0  0  0  0  0  0  0  0  0
   -0.0035   -2.5711   -0.8492 H   0  0  0  0  0  0  0  0  0  0  0  0
    0.1908    3.3191    0.4609 H   0  0  0  0  0  0  0  0  0  0  0  0
  1  2  1  0
  2  3  2  0
  3  4  1  0
  4  5  2  0
  5  6  1  0
  6  7  2  0
  7  8  1  0
  8  9  2  0
  9 10  1  0
  9 11  1  0
 11 12  2  0
  5 13  1  0
 13 14  2  0
 14  2  1  0
 12  6  1  0
  1 15  1  0
  1 16  1  0
  1 17  1  0
  3 18  1  0
  4 19  1  0
  7 20  1  0
  8 21  1  0
 11 22  1  0
 12 23  1  0
 14 24  1  0
M  END
$$$$

     RDKit          3D

 24 25  0  0  0  0  0  0  0  0999 V2000
    1.0191   -2.2295   -3.6380 C   0  0  0  0  0  0  0  0  0  0  0  0
    0.6892   -1.4889   -2.3877 C   0  0  0  0  0  0  0  0  0  0  0  0
    0.9871   -1.9998   -1.1194 C   0  0  0  0  0  0  0  0  0  0  0  0
    0.6670   -1.2851    0.0110 C   0  0  0  0  0  0  0  0  0  0  0  0
    0.0315   -0.0437   -0.1190 C   0  0  0  0  0  0  0  0  0  0  0  0
   -0.3581    0.7628    1.0737 C   0  0  0  0  0  0  0  0  0  0  0  0
   -0.5810    2.1413    0.9467 C   0  0  0  0  0  0  0  0  0  0  0  0
   -0.9309    2.9181    2.0433 C   0  0  0  0  0  0  0  0  0  0  0  0
   -1.0735    2.3007    3.2715 C   0  0  0  0  0  0  0  0  0  0  0  0
   -1.4167    3.0537    4.3347 F   0  0  0  0  0  0  0  0  0  0  0  0
   -0.8811    0.9507    3.4465 C   0  0  0  0  0  0  0  0  0  0  0  0
   -0.5243    0.1837    2.3433 C   0  0  0  0  0  0  0  0  0  0  0  0
   -0.2460    0.4640   -1.3256 N   0  0  0  0  0  0  0  0  0  0  0  0
    0.0684   -0.2326   -2.4089 C   0  0  0  0  0  0  0  0  0  0  0  0
    0.6694   -1.6955   -4.5261 H   0  0  0  0  0  0  0  0  0  0  0  0
    0.5667   -3.2195   -3.6347 H   0  0  0  0  0  0  0  0  0  0  0  0
    2.0922   -2.3785   -3.7224 H   0  0  0  0  0  0  0  0  0  0  0  0
    1.4750   -2.9612   -1.0343 H   0  0  0  0  0  0  0  0  0  0  0  0
    0.9056   -1.6658    0.9915 H   0  0  0  0  0  0  0  0  0  0  0  0
   -0.4779    2.6040   -0.0256 H   0  0  0  0  0  0  0  0  0  0  0  0
   -1.0935    3.9842    1.9458 H   0  0  0  0  0  0  0  0  0  0  0  0
   -1.0066    0.4943    4.4185 H   0  0  0  0  0  0  0  0  0  0  0  0
   -0.3923   -0.8775    2.4761 H   0  0  0  0  0  0  0  0  0  0  0  0
   -0.1893    0.2203   -3.3610 H   0  0  0  0  0  0  0  0  0  0  0  0
  1  2  1  0
  2  3  2  0
  3  4  1  0
  4  5  2  0
  5  6  1  0
  6  7  2  0
  7  8  1  0
  8  9  2  0
  9 10  1  0
  9 11  1  0
 11 12  2  0
  5 13  1  0
 13 14  2  0
 14  2  1  0
 12  6  1  0
  1 15  1  0
  1 16  1  0
  1 17  1  0
  3 18  1  0
  4 19  1  0
  7 20  1  0
  8 21  1  0
 11 22  1  0
 12 23  1  0
 14 24  1  0
M  END
$$$$

     RDKit          3D

 24 25  0  0  0  0  0  0  0  0999 V2000
   -1.2031    0.5209    4.1819 C   0  0  0  0  0  0  0  0  0  0  0  0
   -0.7542    0.3605    2.7700 C   0  0  0  0  0  0  0  0  0  0  0  0
    0.4546   -0.2635    2.4399 C   0  0  0  0  0  0  0  0  0  0  0  0
    0.8254   -0.4082    1.1238 C   0  0  0  0  0  0  0  0  0  0  0  0
   -0.0291    0.0577    0.1172 C   0  0  0  0  0  0  0  0  0  0  0  0
    0.2974   -0.1136   -1.3274 C   0  0  0  0  0  0  0  0  0  0  0  0
   -0.2310    0.7735   -2.2748 C   0  0  0  0  0  0  0  0  0  0  0  0
    0.0427    0.6251   -3.6287 C   0  0  0  0  0  0  0  0  0  0  0  0
    0.8586   -0.4161   -4.0265 C   0  0  0  0  0  0  0  0  0  0  0  0
    1.1263   -0.5620   -5.3409 F   0  0  0  0  0  0  0  0  0  0  0  0
    1.4048   -1.3106   -3.1350 C   0  0  0  0  0  0  0  0  0  0  0  0
    1.1178   -1.1578   -1.7827 C   0  0  0  0  0  0  0  0  0  0  0  0
   -1.1775    0.6731    0.4167 N   0  0  0  0  0  0  0  0  0  0  0  0
   -1.5224    0.8140    1.6889 C   0  0  0  0  0  0  0  0  0  0  0  0
   -2.0876    1.1579    4.2544 H   0  0  0  0  0  0  0  0  0  0  0  0
   -1.4420   -0.4454    4.6220 H   0  0  0  0  0  0  0  0  0  0  0  0
   -0.4126    0.9568    4.7912 H   0  0  0  0  0  0  0  0  0  0  0  0
    1.0971   -0.6245    3.2320 H   0  0  0  0  0  0  0  0  0  0  0  0
    1.7707   -0.8624    0.8601 H   0  0  0  0  0  0  0  0  0  0  0  0
   -0.8680    1.5826   -1.9432 H   0  0  0  0  0  0  0  0  0  0  0  0
   -0.3647    1.3114   -4.3593 H   0  0  0  0  0  0  0  0  0  0  0  0
    2.0338   -2.1214   -3.4784 H   0  0  0  0  0  0  0  0  0  0  0  0
    1.5291   -1.8638   -1.0780 H   0  0  0  0  0  0  0  0  0  0  0  0
   -2.4660    1.3161    1.8767 H   0  0  0  0  0  0  0  0  0  0  0  0
  1  2  1  0
  2  3  2  0
  3  4  1  0
  4  5  2  0
  5  6  1  0
  6  7  2  0
  7  8  1  0
  8  9  2  0
  9 10  1  0
  9 11  1  0
 11 12  2  0
  5 13  1  0
 13 14  2  0
 14  2  1  0
 12  6  1  0
  1 15  1  0
  1 16  1  0
  1 17  1  0
  3 18  1  0
  4 19  1  0
  7 20  1  0
  8 21  1  0
 11 22  1  0
 12 23  1  0
 14 24  1  0
M  END
$$$$

     RDKit          3D

 24 25  0  0  0  0  0  0  0  0999 V2000
   -1.5983   -0.8463    3.9966 C   0  0  0  0  0  0  0  0  0  0  0  0
   -1.0840   -0.5262    2.6342 C   0  0  0  0  0  0  0  0  0  0  0  0
   -1.0690    0.7734    2.1193 C   0  0  0  0  0  0  0  0  0  0  0  0
   -0.5559    1.0215    0.8659 C   0  0  0  0  0  0  0  0  0  0  0  0
   -0.0496   -0.0428    0.1116 C   0  0  0  0  0  0  0  0  0  0  0  0
    0.5237    0.1684   -1.2492 C   0  0  0  0  0  0  0  0  0  0  0  0
    0.5734   -0.8940   -2.1625 C   0  0  0  0  0  0  0  0  0  0  0  0
    1.0921   -0.7219   -3.4391 C   0  0  0  0  0  0  0  0  0  0  0  0
    1.5702    0.5240   -3.7951 C   0  0  0  0  0  0  0  0  0  0  0  0
    2.0786    0.6919   -5.0314 F   0  0  0  0  0  0  0  0  0  0  0  0
    1.5531    1.5952   -2.9328 C   0  0  0  0  0  0  0  0  0  0  0  0
    1.0312    1.4125   -1.6581 C   0  0  0  0  0  0  0  0  0  0  0  0
   -0.0681   -1.2944    0.5893 N   0  0  0  0  0  0  0  0  0  0  0  0
   -0.5600   -1.5213    1.7960 C   0  0  0  0  0  0  0  0  0  0  0  0
   -2.2033   -0.0268    4.3903 H   0  0  0  0  0  0  0  0  0  0  0  0
   -2.2087   -1.7514    3.9897 H   0  0  0  0  0  0  0  0  0  0  0  0
   -0.7773   -1.0126    4.6884 H   0  0  0  0  0  0  0  0  0  0  0  0
   -1.4647    1.5855    2.7091 H   0  0  0  0  0  0  0  0  0  0  0  0
   -0.5452    2.0219    0.4585 H   0  0  0  0  0  0  0  0  0  0  0  0
    0.2094   -1.8659   -1.8619 H   0  0  0  0  0  0  0  0  0  0  0  0
    1.1210   -1.5413   -4.1453 H   0  0  0  0  0  0  0  0  0  0  0  0
    1.9428    2.5570   -3.2372 H   0  0  0  0  0  0  0  0  0  0  0  0
    1.0338    2.2466   -0.9746 H   0  0  0  0  0  0  0  0  0  0  0  0
   -0.5453   -2.5531    2.1385 H   0  0  0  0  0  0  0  0  0  0  0  0
  1  2  1  0
  2  3  2  0
  3  4  1  0
  4  5  2  0
  5  6  1  0
  6  7  2  0
  7  8  1  0
  8  9  2  0
  9 10  1  0
  9 11  1  0
 11 12  2  0
  5 13  1  0
 13 14  2  0
 14  2  1  0
 12  6  1  0
  1 15  1  0
  1 16  1  0
  1 17  1  0
  3 18  1  0
  4 19  1  0
  7 20  1  0
  8 21  1  0
 11 22  1  0
 12 23  1  0
 14 24  1  0
M  END
$$$$

     RDKit          3D

 24 25  0  0  0  0  0  0  0  0999 V2000
   -1.3571    1.9733   -3.6738 C   0  0  0  0  0  0  0  0  0  0  0  0
   -0.9292    1.3175   -2.4047 C   0  0  0  0  0  0  0  0  0  0  0  0
   -1.7616    1.2324   -1.2853 C   0  0  0  0  0  0  0  0  0  0  0  0
   -1.3244    0.6082   -0.1381 C   0  0  0  0  0  0  0  0  0  0  0  0
   -0.0378    0.0579   -0.1056 C   0  0  0  0  0  0  0  0  0  0  0  0
    0.4994   -0.6268    1.1057 C   0  0  0  0  0  0  0  0  0  0  0  0
    1.6092   -1.4768    0.9882 C   0  0  0  0  0  0  0  0  0  0  0  0
    2.1321   -2.1372    2.0923 C   0  0  0  0  0  0  0  0  0  0  0  0
    1.5427   -1.9283    3.3246 C   0  0  0  0  0  0  0  0  0  0  0  0
    2.0478   -2.5670    4.3971 F   0  0  0  0  0  0  0  0  0  0  0  0
    0.4603   -1.0962    3.4943 C   0  0  0  0  0  0  0  0  0  0  0  0
   -0.0605   -0.4474    2.3820 C   0  0  0  0  0  0  0  0  0  0  0  0
    0.7661    0.1235   -1.1773 N   0  0  0  0  0  0  0  0  0  0  0  0
    0.3374    0.7311   -2.2713 C   0  0  0  0  0  0  0  0  0  0  0  0
   -1.6327    1.2288   -4.4178 H   0  0  0  0  0  0  0  0  0  0  0  0
   -2.2239    2.6162   -3.5134 H   0  0  0  0  0  0  0  0  0  0  0  0
   -0.5509    2.5766   -4.0941 H   0  0  0  0  0  0  0  0  0  0  0  0
   -2.7525    1.6607   -1.3258 H   0  0  0  0  0  0  0  0  0  0  0  0
   -1.9638    0.5353    0.7272 H   0  0  0  0  0  0  0  0  0  0  0  0
    2.0624   -1.6200    0.0188 H   0  0  0  0  0  0  0  0  0  0  0  0
    2.9830   -2.7999    1.9948 H   0  0  0  0  0  0  0  0  0  0  0  0
    0.0219   -0.9486    4.4711 H   0  0  0  0  0  0  0  0  0  0  0  0
   -0.9024    0.2127    2.5168 H   0  0  0  0  0  0  0  0  0  0  0  0
    1.0346    0.7739   -3.1057 H   0  0  0  0  0  0  0  0  0  0  0  0
  1  2  1  0
  2  3  2  0
  3  4  1  0
  4  5  2  0
  5  6  1  0
  6  7  2  0
  7  8  1  0
  8  9  2  0
  9 10  1  0
  9 11  1  0
 11 12  2  0
  5 13  1  0
 13 14  2  0
 14  2  1  0
 12  6  1  0
  1 15  1  0
  1 16  1  0
  1 17  1  0
  3 18  1  0
  4 19  1  0
  7 20  1  0
  8 21  1  0
 11 22  1  0
 12 23  1  0
 14 24  1  0
M  END
$$$$

     RDKit          3D

 24 25  0  0  0  0  0  0  0  0999 V2000
   -1.5153   -3.0020    2.8121 C   0  0  0  0  0  0  0  0  0  0  0  0
   -1.0265   -1.9904    1.8325 C   0  0  0  0  0  0  0  0  0  0  0  0
   -1.7176   -1.6848    0.6575 C   0  0  0  0  0  0  0  0  0  0  0  0
   -1.2289   -0.7336   -0.2086 C   0  0  0  0  0  0  0  0  0  0  0  0
   -0.0264   -0.0824    0.0952 C   0  0  0  0  0  0  0  0  0  0  0  0
    0.5604    0.9400   -0.8164 C   0  0  0  0  0  0  0  0  0  0  0  0
    1.3727    1.9588   -0.3021 C   0  0  0  0  0  0  0  0  0  0  0  0
    1.9073    2.9392   -1.1292 C   0  0  0  0  0  0  0  0  0  0  0  0
    1.6350    2.8790   -2.4824 C   0  0  0  0  0  0  0  0  0  0  0  0
    2.1458    3.8333   -3.2859 F   0  0  0  0  0  0  0  0  0  0  0  0
    0.8617    1.8861   -3.0376 C   0  0  0  0  0  0  0  0  0  0  0  0
    0.3277    0.9149   -2.2001 C   0  0  0  0  0  0  0  0  0  0  0  0
    0.6365   -0.3538    1.2253 N   0  0  0  0  0  0  0  0  0  0  0  0
    0.1574   -1.2705    2.0509 C   0  0  0  0  0  0  0  0  0  0  0  0
   -2.1858   -3.7212    2.3381 H   0  0  0  0  0  0  0  0  0  0  0  0
   -2.0684   -2.5231    3.6168 H   0  0  0  0  0  0  0  0  0  0  0  0
   -0.6836   -3.5487    3.2597 H   0  0  0  0  0  0  0  0  0  0  0  0
   -2.6415   -2.2008    0.4331 H   0  0  0  0  0  0  0  0  0  0  0  0
   -1.7668   -0.4713   -1.1073 H   0  0  0  0  0  0  0  0  0  0  0  0
    1.5830    1.9786    0.7585 H   0  0  0  0  0  0  0  0  0  0  0  0
    2.5259    3.7326   -0.7294 H   0  0  0  0  0  0  0  0  0  0  0  0
    0.6743    1.8612   -4.1017 H   0  0  0  0  0  0  0  0  0  0  0  0
   -0.2649    0.1211   -2.6289 H   0  0  0  0  0  0  0  0  0  0  0  0
    0.7380   -1.4621    2.9500 H   0  0  0  0  0  0  0  0  0  0  0  0
  1  2  1  0
  2  3  2  0
  3  4  1  0
  4  5  2  0
  5  6  1  0
  6  7  2  0
  7  8  1  0
  8  9  2  0
  9 10  1  0
  9 11  1  0
 11 12  2  0
  5 13  1  0
 13 14  2  0
 14  2  1  0
 12  6  1  0
  1 15  1  0
  1 16  1  0
  1 17  1  0
  3 18  1  0
  4 19  1  0
  7 20  1  0
  8 21  1  0
 11 22  1  0
 12 23  1  0
 14 24  1  0
M  END
$$$$

     RDKit          3D

 24 25  0  0  0  0  0  0  0  0999 V2000
   -2.6043   -1.5158    3.1917 C   0  0  0  0  0  0  0  0  0  0  0  0
   -1.7115   -1.0482    2.0912 C   0  0  0  0  0  0  0  0  0  0  0  0
   -1.1362   -1.9163    1.1598 C   0  0  0  0  0  0  0  0  0  0  0  0
   -0.3199   -1.4270    0.1634 C   0  0  0  0  0  0  0  0  0  0  0  0
   -0.0671   -0.0516    0.0954 C   0  0  0  0  0  0  0  0  0  0  0  0
    0.8051    0.5479   -0.9590 C   0  0  0  0  0  0  0  0  0  0  0  0
    1.0596    1.9295   -0.9462 C   0  0  0  0  0  0  0  0  0  0  0  0
    1.8543    2.5229   -1.9172 C   0  0  0  0  0  0  0  0  0  0  0  0
    2.4041    1.7237   -2.9023 C   0  0  0  0  0  0  0  0  0  0  0  0
    3.1747    2.2980   -3.8443 F   0  0  0  0  0  0  0  0  0  0  0  0
    2.1892    0.3673   -2.9575 C   0  0  0  0  0  0  0  0  0  0  0  0
    1.3894   -0.2171   -1.9852 C   0  0  0  0  0  0  0  0  0  0  0  0
   -0.6113    0.7919    0.9878 N   0  0  0  0  0  0  0  0  0  0  0  0
   -1.3988    0.3114    1.9346 C   0  0  0  0  0  0  0  0  0  0  0  0
   -2.7542   -2.5962    3.1550 H   0  0  0  0  0  0  0  0  0  0  0  0
   -3.5787   -1.0357    3.1320 H   0  0  0  0  0  0  0  0  0  0  0  0
   -2.1834   -1.2635    4.1652 H   0  0  0  0  0  0  0  0  0  0  0  0
   -1.3322   -2.9749    1.2230 H   0  0  0  0  0  0  0  0  0  0  0  0
    0.1164   -2.0987   -0.5575 H   0  0  0  0  0  0  0  0  0  0  0  0
    0.6240    2.5424   -0.1732 H   0  0  0  0  0  0  0  0  0  0  0  0
    2.0452    3.5878   -1.9091 H   0  0  0  0  0  0  0  0  0  0  0  0
    2.6269   -0.2306   -3.7451 H   0  0  0  0  0  0  0  0  0  0  0  0
    1.2263   -1.2820   -2.0324 H   0  0  0  0  0  0  0  0  0  0  0  0
   -1.8174    1.0347    2.6297 H   0  0  0  0  0  0  0  0  0  0  0  0
  1  2  1  0
  2  3  2  0
  3  4  1  0
  4  5  2  0
  5  6  1  0
  6  7  2  0
  7  8  1  0
  8  9  2  0
  9 10  1  0
  9 11  1  0
 11 12  2  0
  5 13  1  0
 13 14  2  0
 14  2  1  0
 12  6  1  0
  1 15  1  0
  1 16  1  0
  1 17  1  0
  3 18  1  0
  4 19  1  0
  7 20  1  0
  8 21  1  0
 11 22  1  0
 12 23  1  0
 14 24  1  0
M  END
$$$$
