
     RDKit          3D

 24 25  0  0  0  0  0  0  0  0999 V2000
    0.4928    1.2492    4.2003 C   0  0  0  0  0  0  0  0  0  0  0  0
    0.3046    0.8594    2.7740 C   0  0  0  0  0  0  0  0  0  0  0  0
   -0.5288    1.5637    1.9009 C   0  0  0  0  0  0  0  0  0  0  0  0
   -0.6616    1.1589    0.5935 C   0  0  0  0  0  0  0  0  0  0  0  0
    0.0404    0.0371    0.1513 C   0  0  0  0  0  0  0  0  0  0  0  0
   -0.0869   -0.4552   -1.2480 C   0  0  0  0  0  0  0  0  0  0  0  0
    0.9625   -1.1560   -1.8470 C   0  0  0  0  0  0  0  0  0  0  0  0
    0.8641   -1.6106   -3.1553 C   0  0  0  0  0  0  0  0  0  0  0  0
   -0.2998   -1.3824   -3.8747 C   0  0  0  0  0  0  0  0  0  0  0  0
   -0.4417   -2.0643   -5.8340 I   0  0  0  0  0  0  0  0  0  0  0  0
   -1.3612   -0.7030   -3.3038 C   0  0  0  0  0  0  0  0  0  0  0  0
   -1.2508   -0.2444   -1.9981 C   0  0  0  0  0  0  0  0  0  0  0  0
    0.8592   -0.6324    0.9692 N   0  0  0  0  0  0  0  0  0  0  0  0
    0.9792   -0.2420    2.2246 C   0  0  0  0  0  0  0  0  0  0  0  0
    1.4570    1.7346    4.3381 H   0  0  0  0  0  0  0  0  0  0  0  0
    0.4717    0.3726    4.8518 H   0  0  0  0  0  0  0  0  0  0  0  0
   -0.2830    1.9521    4.5256 H   0  0  0  0  0  0  0  0  0  0  0  0
   -1.0689    2.4292    2.2557 H   0  0  0  0  0  0  0  0  0  0  0  0
   -1.2872    1.7105   -0.0975 H   0  0  0  0  0  0  0  0  0  0  0  0
    1.8670   -1.3470   -1.2754 H   0  0  0  0  0  0  0  0  0  0  0  0
    1.6958   -2.1438   -3.6064 H   0  0  0  0  0  0  0  0  0  0  0  0
   -2.2795   -0.5323   -3.8527 H   0  0  0  0  0  0  0  0  0  0  0  0
   -2.0931    0.2721   -1.5478 H   0  0  0  0  0  0  0  0  0  0  0  0
    1.6481   -0.8257    2.8559 H   0  0  0  0  0  0  0  0  0  0  0  0
  1  2  1  0
  2  3  2  0
  3  4  1  0
  4  5  2  0
  5  6  1  0
  6  7  2  0
  7  8  1  0
  8  9  2  0
  9 10  1  0
  9 11  1  0
 11 12  2  0
  5 13  1  0
 13 14  2  0
 14  2  1  0
 12  6  1  0
  1 15  1  0
  1 16  1  0
  1 17  1  0
  3 18  1  0
  4 19  1  0
  7 20  1  0
  8 21  1  0
 11 22  1  0
 12 23  1  0
 14 24  1  0
M  END
$$$$

     RDKit          3D

 24 25  0  0  0  0  0  0  0  0999 V2000
    0.5420    1.5822   -4.0839 C   0  0  0  0  0  0  0  0  0  0  0  0
    0.3336    1.0653   -2.7007 C   0  0  0  0  0  0  0  0  0  0  0  0
   -0.7742    1.4323   -1.9272 C   0  0  0  0  0  0  0  0  0  0  0  0
   -0.9312    0.9251   -0.6587 C   0  0  0  0  0  0  0  0  0  0  0  0
    0.0268    0.0462   -0.1487 C   0  0  0  0  0  0  0  0  0  0  0  0
   -0.0802   -0.5216    1.2239 C   0  0  0  0  0  0  0  0  0  0  0  0
    0.5438   -1.7340    1.5304 C   0  0  0  0  0  0  0  0  0  0  0  0
    0.4470   -2.2912    2.7982 C   0  0  0  0  0  0  0  0  0  0  0  0
   -0.2639   -1.6258    3.7844 C   0  0  0  0  0  0  0  0  0  0  0  0
   -0.4124   -2.4471    5.6884 I   0  0  0  0  0  0  0  0  0  0  0  0
   -0.8785   -0.4162    3.5169 C   0  0  0  0  0  0  0  0  0  0  0  0
   -0.7848    0.1299    2.2429 C   0  0  0  0  0  0  0  0  0  0  0  0
    1.0801   -0.3241   -0.8822 N   0  0  0  0  0  0  0  0  0  0  0  0
    1.2285    0.1677   -2.0997 C   0  0  0  0  0  0  0  0  0  0  0  0
    1.5741    1.4223   -4.4201 H   0  0  0  0  0  0  0  0  0  0  0  0
   -0.1271    1.0863   -4.7826 H   0  0  0  0  0  0  0  0  0  0  0  0
    0.3176    2.6494   -4.1381 H   0  0  0  0  0  0  0  0  0  0  0  0
   -1.5111    2.1114   -2.3369 H   0  0  0  0  0  0  0  0  0  0  0  0
   -1.7958    1.1874   -0.0605 H   0  0  0  0  0  0  0  0  0  0  0  0
    1.1130   -2.2464    0.7610 H   0  0  0  0  0  0  0  0  0  0  0  0
    0.9273   -3.2414    3.0064 H   0  0  0  0  0  0  0  0  0  0  0  0
   -1.4285    0.1122    4.2843 H   0  0  0  0  0  0  0  0  0  0  0  0
   -1.2557    1.0893    2.0494 H   0  0  0  0  0  0  0  0  0  0  0  0
    2.1094   -0.1590   -2.6468 H   0  0  0  0  0  0  0  0  0  0  0  0
  1  2  1  0
  2  3  2  0
  3  4  1  0
  4  5  2  0
  5  6  1  0
  6  7  2  0
  7  8  1  0
  8  9  2  0
  9 10  1  0
  9 11  1  0
 11 12  2  0
  5 13  1  0
 13 14  2  0
 14  2  1  0
 12  6  1  0
  1 15  1  0
  1 16  1  0
  1 17  1  0
  3 18  1  0
  4 19  1  0
  7 20  1  0
  8 21  1  0
 11 22  1  0
 12 23  1  0
 14 24  1  0
M  END
$$$$

     RDKit          3D

 24 25  0  0  0  0  0  0  0  0999 V2000
   -1.9241    1.3030    3.7518 C   0  0  0  0  0  0  0  0  0  0  0  0
   -1.3094    0.8243    2.4818 C   0  0  0  0  0  0  0  0  0  0  0  0
   -2.0679    0.3426    1.4120 C   0  0  0  0  0  0  0  0  0  0  0  0
   -1.4502   -0.0581    0.2496 C   0  0  0  0  0  0  0  0  0  0  0  0
   -0.0606    0.0288    0.1472 C   0  0  0  0  0  0  0  0  0  0  0  0
    0.6630   -0.3670   -1.0955 C   0  0  0  0  0  0  0  0  0  0  0  0
    2.0348   -0.6371   -1.0533 C   0  0  0  0  0  0  0  0  0  0  0  0
    2.7262   -1.0235   -2.1932 C   0  0  0  0  0  0  0  0  0  0  0  0
    2.0534   -1.1268   -3.4017 C   0  0  0  0  0  0  0  0  0  0  0  0
    3.0874   -1.7040   -5.1143 I   0  0  0  0  0  0  0  0  0  0  0  0
    0.7015   -0.8484   -3.4812 C   0  0  0  0  0  0  0  0  0  0  0  0
    0.0148   -0.4691   -2.3341 C   0  0  0  0  0  0  0  0  0  0  0  0
    0.6779    0.4702    1.1722 N   0  0  0  0  0  0  0  0  0  0  0  0
    0.0793    0.8542    2.2841 C   0  0  0  0  0  0  0  0  0  0  0  0
   -1.9793    2.3910    3.7599 H   0  0  0  0  0  0  0  0  0  0  0  0
   -1.3330    0.9979    4.6183 H   0  0  0  0  0  0  0  0  0  0  0  0
   -2.9425    0.9172    3.8640 H   0  0  0  0  0  0  0  0  0  0  0  0
   -3.1421    0.2791    1.5016 H   0  0  0  0  0  0  0  0  0  0  0  0
   -2.0284   -0.4525   -0.5760 H   0  0  0  0  0  0  0  0  0  0  0  0
    2.5639   -0.5373   -0.1105 H   0  0  0  0  0  0  0  0  0  0  0  0
    3.7856   -1.2420   -2.1333 H   0  0  0  0  0  0  0  0  0  0  0  0
    0.1712   -0.9148   -4.4223 H   0  0  0  0  0  0  0  0  0  0  0  0
   -1.0438   -0.2407   -2.4118 H   0  0  0  0  0  0  0  0  0  0  0  0
    0.7222    1.2127    3.0846 H   0  0  0  0  0  0  0  0  0  0  0  0
  1  2  1  0
  2  3  2  0
  3  4  1  0
  4  5  2  0
  5  6  1  0
  6  7  2  0
  7  8  1  0
  8  9  2  0
  9 10  1  0
  9 11  1  0
 11 12  2  0
  5 13  1  0
 13 14  2  0
 14  2  1  0
 12  6  1  0
  1 15  1  0
  1 16  1  0
  1 17  1  0
  3 18  1  0
  4 19  1  0
  7 20  1  0
  8 21  1  0
 11 22  1  0
 12 23  1  0
 14 24  1  0
M  END
$$$$

     RDKit          3D

 24 25  0  0  0  0  0  0  0  0999 V2000
    4.1473    1.4443   -0.4460 C   0  0  0  0  0  0  0  0  0  0  0  0
    2.7538    0.9322   -0.3185 C   0  0  0  0  0  0  0  0  0  0  0  0
    2.3981   -0.3634   -0.7067 C   0  0  0  0  0  0  0  0  0  0  0  0
    1.1041   -0.8021   -0.5508 C   0  0  0  0  0  0  0  0  0  0  0  0
    0.1471    0.0592   -0.0113 C   0  0  0  0  0  0  0  0  0  0  0  0
   -1.2746   -0.3544    0.1681 C   0  0  0  0  0  0  0  0  0  0  0  0
   -2.1025    0.3488    1.0495 C   0  0  0  0  0  0  0  0  0  0  0  0
   -3.4275   -0.0172    1.2362 C   0  0  0  0  0  0  0  0  0  0  0  0
   -3.9471   -1.0921    0.5325 C   0  0  0  0  0  0  0  0  0  0  0  0
   -5.9350   -1.6421    0.8154 I   0  0  0  0  0  0  0  0  0  0  0  0
   -3.1580   -1.8037   -0.3523 C   0  0  0  0  0  0  0  0  0  0  0  0
   -1.8314   -1.4339   -0.5324 C   0  0  0  0  0  0  0  0  0  0  0  0
    0.4770    1.2972    0.3696 N   0  0  0  0  0  0  0  0  0  0  0  0
    1.7223    1.7142    0.2196 C   0  0  0  0  0  0  0  0  0  0  0  0
    4.1762    2.5390   -0.4146 H   0  0  0  0  0  0  0  0  0  0  0  0
    4.6032    1.1055   -1.3781 H   0  0  0  0  0  0  0  0  0  0  0  0
    4.7677    1.0629    0.3621 H   0  0  0  0  0  0  0  0  0  0  0  0
    3.1485   -1.0184   -1.1273 H   0  0  0  0  0  0  0  0  0  0  0  0
    0.8304   -1.8115   -0.8244 H   0  0  0  0  0  0  0  0  0  0  0  0
   -1.6991    1.1956    1.5960 H   0  0  0  0  0  0  0  0  0  0  0  0
   -4.0462    0.5395    1.9308 H   0  0  0  0  0  0  0  0  0  0  0  0
   -3.5578   -2.6421   -0.9079 H   0  0  0  0  0  0  0  0  0  0  0  0
   -1.2288   -1.9895   -1.2446 H   0  0  0  0  0  0  0  0  0  0  0  0
    1.9325    2.7321    0.5352 H   0  0  0  0  0  0  0  0  0  0  0  0
  1  2  1  0
  2  3  2  0
  3  4  1  0
  4  5  2  0
  5  6  1  0
  6  7  2  0
  7  8  1  0
  8  9  2  0
  9 10  1  0
  9 11  1  0
 11 12  2  0
  5 13  1  0
 13 14  2  0
 14  2  1  0
 12  6  1  0
  1 15  1  0
  1 16  1  0
  1 17  1  0
  3 18  1  0
  4 19  1  0
  7 20  1  0
  8 21  1  0
 11 22  1  0
 12 23  1  0
 14 24  1  0
M  END
$$$$

     RDKit          3D

 24 25  0  0  0  0  0  0  0  0999 V2000
    3.5585   -1.6657   -2.0122 C   0  0  0  0  0  0  0  0  0  0  0  0
    2.3696   -1.1293   -1.2917 C   0  0  0  0  0  0  0  0  0  0  0  0
    2.0969   -1.4228    0.0467 C   0  0  0  0  0  0  0  0  0  0  0  0
    0.9849   -0.8923    0.6606 C   0  0  0  0  0  0  0  0  0  0  0  0
    0.1293   -0.0633   -0.0671 C   0  0  0  0  0  0  0  0  0  0  0  0
   -1.0968    0.5372    0.5348 C   0  0  0  0  0  0  0  0  0  0  0  0
   -1.7749    1.5571   -0.1424 C   0  0  0  0  0  0  0  0  0  0  0  0
   -2.9140    2.1415    0.3932 C   0  0  0  0  0  0  0  0  0  0  0  0
   -3.3998    1.7019    1.6165 C   0  0  0  0  0  0  0  0  0  0  0  0
   -5.1097    2.5717    2.4233 I   0  0  0  0  0  0  0  0  0  0  0  0
   -2.7594    0.6913    2.3069 C   0  0  0  0  0  0  0  0  0  0  0  0
   -1.6156    0.1171    1.7679 C   0  0  0  0  0  0  0  0  0  0  0  0
    0.3848    0.2289   -1.3502 N   0  0  0  0  0  0  0  0  0  0  0  0
    1.4555   -0.2775   -1.9312 C   0  0  0  0  0  0  0  0  0  0  0  0
    4.0791   -2.4212   -1.4140 H   0  0  0  0  0  0  0  0  0  0  0  0
    4.2627   -0.8664   -2.2347 H   0  0  0  0  0  0  0  0  0  0  0  0
    3.2662   -2.1125   -2.9645 H   0  0  0  0  0  0  0  0  0  0  0  0
    2.7626   -2.0671    0.6005 H   0  0  0  0  0  0  0  0  0  0  0  0
    0.7844   -1.1021    1.7030 H   0  0  0  0  0  0  0  0  0  0  0  0
   -1.3996    1.8959   -1.1016 H   0  0  0  0  0  0  0  0  0  0  0  0
   -3.4218    2.9302   -0.1496 H   0  0  0  0  0  0  0  0  0  0  0  0
   -3.1329    0.3380    3.2587 H   0  0  0  0  0  0  0  0  0  0  0  0
   -1.1316   -0.6823    2.3202 H   0  0  0  0  0  0  0  0  0  0  0  0
    1.6215   -0.0085   -2.9730 H   0  0  0  0  0  0  0  0  0  0  0  0
  1  2  1  0
  2  3  2  0
  3  4  1  0
  4  5  2  0
  5  6  1  0
  6  7  2  0
  7  8  1  0
  8  9  2  0
  9 10  1  0
  9 11  1  0
 11 12  2  0
  5 13  1  0
 13 14  2  0
 14  2  1  0
 12  6  1  0
  1 15  1  0
  1 16  1  0
  1 17  1  0
  3 18  1  0
  4 19  1  0
  7 20  1  0
  8 21  1  0
 11 22  1  0
 12 23  1  0
 14 24  1  0
M  END
$$$$

     RDKit          3D

 24 25  0  0  0  0  0  0  0  0999 V2000
   -4.4055   -0.2215    0.1269 C   0  0  0  0  0  0  0  0  0  0  0  0
   -2.9203   -0.1015    0.0868 C   0  0  0  0  0  0  0  0  0  0  0  0
   -2.2486    1.0867    0.3832 C   0  0  0  0  0  0  0  0  0  0  0  0
   -0.8736    1.1358    0.3439 C   0  0  0  0  0  0  0  0  0  0  0  0
   -0.1581   -0.0144    0.0092 C   0  0  0  0  0  0  0  0  0  0  0  0
    1.3315   -0.0245   -0.0516 C   0  0  0  0  0  0  0  0  0  0  0  0
    1.9941   -0.9810   -0.8268 C   0  0  0  0  0  0  0  0  0  0  0  0
    3.3795   -1.0086   -0.9056 C   0  0  0  0  0  0  0  0  0  0  0  0
    4.1237   -0.0736   -0.2039 C   0  0  0  0  0  0  0  0  0  0  0  0
    6.1998   -0.1065   -0.3248 I   0  0  0  0  0  0  0  0  0  0  0  0
    3.4980    0.8814    0.5788 C   0  0  0  0  0  0  0  0  0  0  0  0
    2.1105    0.8995    0.6547 C   0  0  0  0  0  0  0  0  0  0  0  0
   -0.7889   -1.1568   -0.2824 N   0  0  0  0  0  0  0  0  0  0  0  0
   -2.1080   -1.1968   -0.2424 C   0  0  0  0  0  0  0  0  0  0  0  0
   -4.8845    0.7634    0.1558 H   0  0  0  0  0  0  0  0  0  0  0  0
   -4.7788   -0.7655   -0.7450 H   0  0  0  0  0  0  0  0  0  0  0  0
   -4.7186   -0.7744    1.0110 H   0  0  0  0  0  0  0  0  0  0  0  0
   -2.8142    1.9706    0.6360 H   0  0  0  0  0  0  0  0  0  0  0  0
   -0.3468    2.0578    0.5530 H   0  0  0  0  0  0  0  0  0  0  0  0
    1.4099   -1.7158   -1.3717 H   0  0  0  0  0  0  0  0  0  0  0  0
    3.8692   -1.7581   -1.5195 H   0  0  0  0  0  0  0  0  0  0  0  0
    4.0722    1.6111    1.1352 H   0  0  0  0  0  0  0  0  0  0  0  0
    1.6308    1.6440    1.2819 H   0  0  0  0  0  0  0  0  0  0  0  0
   -2.5733   -2.1513   -0.4825 H   0  0  0  0  0  0  0  0  0  0  0  0
  1  2  1  0
  2  3  2  0
  3  4  1  0
  4  5  2  0
  5  6  1  0
  6  7  2  0
  7  8  1  0
  8  9  2  0
  9 10  1  0
  9 11  1  0
 11 12  2  0
  5 13  1  0
 13 14  2  0
 14  2  1  0
 12  6  1  0
  1 15  1  0
  1 16  1  0
  1 17  1  0
  3 18  1  0
  4 19  1  0
  7 20  1  0
  8 21  1  0
 11 22  1  0
 12 23  1  0
 14 24  1  0
M  END
$$$$

     RDKit          3D

 24 25  0  0  0  0  0  0  0  0999 V2000
    1.8427    3.1440    2.4963 C   0  0  0  0  0  0  0  0  0  0  0  0
    1.2185    2.0599    1.6865 C   0  0  0  0  0  0  0  0  0  0  0  0
    0.5209    0.9993    2.2701 C   0  0  0  0  0  0  0  0  0  0  0  0
   -0.0468    0.0250    1.4812 C   0  0  0  0  0  0  0  0  0  0  0  0
    0.0744    0.1061    0.0923 C   0  0  0  0  0  0  0  0  0  0  0  0
   -0.5190   -0.9147   -0.8214 C   0  0  0  0  0  0  0  0  0  0  0  0
   -0.5028   -0.7037   -2.2051 C   0  0  0  0  0  0  0  0  0  0  0  0
   -1.0592   -1.6256   -3.0789 C   0  0  0  0  0  0  0  0  0  0  0  0
   -1.6376   -2.7842   -2.5809 C   0  0  0  0  0  0  0  0  0  0  0  0
   -2.4834   -4.1623   -3.8919 I   0  0  0  0  0  0  0  0  0  0  0  0
   -1.6622   -3.0283   -1.2219 C   0  0  0  0  0  0  0  0  0  0  0  0
   -1.1046   -2.1006   -0.3529 C   0  0  0  0  0  0  0  0  0  0  0  0
    0.7374    1.1220   -0.4773 N   0  0  0  0  0  0  0  0  0  0  0  0
    1.2830    2.0522    0.2855 C   0  0  0  0  0  0  0  0  0  0  0  0
    1.1771    4.0022    2.5639 H   0  0  0  0  0  0  0  0  0  0  0  0
    2.7773    3.4833    2.0446 H   0  0  0  0  0  0  0  0  0  0  0  0
    2.0443    2.8055    3.5169 H   0  0  0  0  0  0  0  0  0  0  0  0
    0.4282    0.9500    3.3439 H   0  0  0  0  0  0  0  0  0  0  0  0
   -0.5885   -0.7936    1.9340 H   0  0  0  0  0  0  0  0  0  0  0  0
   -0.0509    0.1998   -2.6006 H   0  0  0  0  0  0  0  0  0  0  0  0
   -1.0377   -1.4375   -4.1451 H   0  0  0  0  0  0  0  0  0  0  0  0
   -2.1110   -3.9271   -0.8226 H   0  0  0  0  0  0  0  0  0  0  0  0
   -1.1196   -2.3209    0.7096 H   0  0  0  0  0  0  0  0  0  0  0  0
    1.8194    2.8490   -0.2263 H   0  0  0  0  0  0  0  0  0  0  0  0
  1  2  1  0
  2  3  2  0
  3  4  1  0
  4  5  2  0
  5  6  1  0
  6  7  2  0
  7  8  1  0
  8  9  2  0
  9 10  1  0
  9 11  1  0
 11 12  2  0
  5 13  1  0
 13 14  2  0
 14  2  1  0
 12  6  1  0
  1 15  1  0
  1 16  1  0
  1 17  1  0
  3 18  1  0
  4 19  1  0
  7 20  1  0
  8 21  1  0
 11 22  1  0
 12 23  1  0
 14 24  1  0
M  END
$$$$

     RDKit          3D

 24 25  0  0  0  0  0  0  0  0999 V2000
   -3.3400   -2.4366   -1.5447 C   0  0  0  0  0  0  0  0  0  0  0  0
   -2.2001   -1.6158   -1.0474 C   0  0  0  0  0  0  0  0  0  0  0  0
   -1.4312   -0.8216   -1.9050 C   0  0  0  0  0  0  0  0  0  0  0  0
   -0.3987   -0.0640   -1.4061 C   0  0  0  0  0  0  0  0  0  0  0  0
   -0.1273   -0.0917   -0.0367 C   0  0  0  0  0  0  0  0  0  0  0  0
    0.9773    0.7134    0.5593 C   0  0  0  0  0  0  0  0  0  0  0  0
    1.5171    0.3539    1.7979 C   0  0  0  0  0  0  0  0  0  0  0  0
    2.5607    1.0742    2.3621 C   0  0  0  0  0  0  0  0  0  0  0  0
    3.0762    2.1731    1.6930 C   0  0  0  0  0  0  0  0  0  0  0  0
    4.6509    3.2494    2.5244 I   0  0  0  0  0  0  0  0  0  0  0  0
    2.5504    2.5667    0.4759 C   0  0  0  0  0  0  0  0  0  0  0  0
    1.5060    1.8403   -0.0831 C   0  0  0  0  0  0  0  0  0  0  0  0
   -0.8475   -0.8542    0.7928 N   0  0  0  0  0  0  0  0  0  0  0  0
   -1.8413   -1.5789    0.3083 C   0  0  0  0  0  0  0  0  0  0  0  0
   -4.1752   -1.7950   -1.8256 H   0  0  0  0  0  0  0  0  0  0  0  0
   -3.0555   -2.9906   -2.4406 H   0  0  0  0  0  0  0  0  0  0  0  0
   -3.6883   -3.1461   -0.7856 H   0  0  0  0  0  0  0  0  0  0  0  0
   -1.6509   -0.8123   -2.9637 H   0  0  0  0  0  0  0  0  0  0  0  0
    0.2075    0.5424   -2.0659 H   0  0  0  0  0  0  0  0  0  0  0  0
    1.1081   -0.5017    2.3256 H   0  0  0  0  0  0  0  0  0  0  0  0
    2.9708    0.7692    3.3185 H   0  0  0  0  0  0  0  0  0  0  0  0
    2.9360    3.4323   -0.0468 H   0  0  0  0  0  0  0  0  0  0  0  0
    1.0958    2.1690   -1.0320 H   0  0  0  0  0  0  0  0  0  0  0  0
   -2.4004   -2.1753    1.0251 H   0  0  0  0  0  0  0  0  0  0  0  0
  1  2  1  0
  2  3  2  0
  3  4  1  0
  4  5  2  0
  5  6  1  0
  6  7  2  0
  7  8  1  0
  8  9  2  0
  9 10  1  0
  9 11  1  0
 11 12  2  0
  5 13  1  0
 13 14  2  0
 14  2  1  0
 12  6  1  0
  1 15  1  0
  1 16  1  0
  1 17  1  0
  3 18  1  0
  4 19  1  0
  7 20  1  0
  8 21  1  0
 11 22  1  0
 12 23  1  0
 14 24  1  0
M  END
$$$$

     RDKit          3D

 24 25  0  0  0  0  0  0  0  0999 V2000
    2.4162    1.4080    3.4198 C   0  0  0  0  0  0  0  0  0  0  0  0
    1.6326    0.9321    2.2443 C   0  0  0  0  0  0  0  0  0  0  0  0
    2.2443    0.4695    1.0742 C   0  0  0  0  0  0  0  0  0  0  0  0
    1.4793    0.0280    0.0189 C   0  0  0  0  0  0  0  0  0  0  0  0
    0.0868    0.0485    0.1230 C   0  0  0  0  0  0  0  0  0  0  0  0
   -0.7986   -0.4069   -0.9892 C   0  0  0  0  0  0  0  0  0  0  0  0
   -2.1668   -0.5896   -0.7568 C   0  0  0  0  0  0  0  0  0  0  0  0
   -3.0178   -1.0129   -1.7668 C   0  0  0  0  0  0  0  0  0  0  0  0
   -2.5108   -1.2521   -3.0346 C   0  0  0  0  0  0  0  0  0  0  0  0
   -3.7873   -1.8909   -4.5503 I   0  0  0  0  0  0  0  0  0  0  0  0
   -1.1657   -1.0792   -3.2986 C   0  0  0  0  0  0  0  0  0  0  0  0
   -0.3187   -0.6597   -2.2823 C   0  0  0  0  0  0  0  0  0  0  0  0
   -0.5085    0.4815    1.2417 N   0  0  0  0  0  0  0  0  0  0  0  0
    0.2310    0.9041    2.2522 C   0  0  0  0  0  0  0  0  0  0  0  0
    3.3008    1.9611    3.0986 H   0  0  0  0  0  0  0  0  0  0  0  0
    1.8114    2.0537    4.0665 H   0  0  0  0  0  0  0  0  0  0  0  0
    2.7673    0.5668    4.0120 H   0  0  0  0  0  0  0  0  0  0  0  0
    3.3226    0.4622    1.0030 H   0  0  0  0  0  0  0  0  0  0  0  0
    1.9511   -0.3426   -0.8821 H   0  0  0  0  0  0  0  0  0  0  0  0
   -2.5644   -0.3987    0.2336 H   0  0  0  0  0  0  0  0  0  0  0  0
   -4.0737   -1.1500   -1.5620 H   0  0  0  0  0  0  0  0  0  0  0  0
   -0.7605   -1.2595   -4.2849 H   0  0  0  0  0  0  0  0  0  0  0  0
    0.7332   -0.5250   -2.5127 H   0  0  0  0  0  0  0  0  0  0  0  0
   -0.3040    1.2517    3.1326 H   0  0  0  0  0  0  0  0  0  0  0  0
  1  2  1  0
  2  3  2  0
  3  4  1  0
  4  5  2  0
  5  6  1  0
  6  7  2  0
  7  8  1  0
  8  9  2  0
  9 10  1  0
  9 11  1  0
 11 12  2  0
  5 13  1  0
 13 14  2  0
 14  2  1  0
 12  6  1  0
  1 15  1  0
  1 16  1  0
  1 17  1  0
  3 18  1  0
  4 19  1  0
  7 20  1  0
  8 21  1  0
 11 22  1  0
 12 23  1  0
 14 24  1  0
M  END
$$$$

     RDKit          3D

 24 25  0  0  0  0  0  0  0  0999 V2000
   -3.2198   -0.7920    2.9133 C   0  0  0  0  0  0  0  0  0  0  0  0
   -2.1404   -0.4932    1.9299 C   0  0  0  0  0  0  0  0  0  0  0  0
   -2.0877    0.7163    1.2299 C   0  0  0  0  0  0  0  0  0  0  0  0
   -1.0727    0.9524    0.3328 C   0  0  0  0  0  0  0  0  0  0  0  0
   -0.1003   -0.0282    0.1219 C   0  0  0  0  0  0  0  0  0  0  0  0
    1.0079    0.1550   -0.8579 C   0  0  0  0  0  0  0  0  0  0  0  0
    2.1680   -0.6213   -0.7655 C   0  0  0  0  0  0  0  0  0  0  0  0
    3.2134   -0.4635   -1.6650 C   0  0  0  0  0  0  0  0  0  0  0  0
    3.1047    0.4694   -2.6845 C   0  0  0  0  0  0  0  0  0  0  0  0
    4.6752    0.7207   -4.0273 I   0  0  0  0  0  0  0  0  0  0  0  0
    1.9646    1.2409   -2.8128 C   0  0  0  0  0  0  0  0  0  0  0  0
    0.9268    1.0830   -1.9035 C   0  0  0  0  0  0  0  0  0  0  0  0
   -0.1282   -1.1784    0.8013 N   0  0  0  0  0  0  0  0  0  0  0  0
   -1.1048   -1.4008    1.6612 C   0  0  0  0  0  0  0  0  0  0  0  0
   -3.0378   -0.2725    3.8506 H   0  0  0  0  0  0  0  0  0  0  0  0
   -4.1877   -0.4433    2.5458 H   0  0  0  0  0  0  0  0  0  0  0  0
   -3.2882   -1.8658    3.1202 H   0  0  0  0  0  0  0  0  0  0  0  0
   -2.8487    1.4658    1.4003 H   0  0  0  0  0  0  0  0  0  0  0  0
   -1.0114    1.8970   -0.1904 H   0  0  0  0  0  0  0  0  0  0  0  0
    2.2505   -1.3587    0.0264 H   0  0  0  0  0  0  0  0  0  0  0  0
    4.1037   -1.0746   -1.5687 H   0  0  0  0  0  0  0  0  0  0  0  0
    1.8635    1.9634   -3.6118 H   0  0  0  0  0  0  0  0  0  0  0  0
    0.0311    1.6826   -2.0285 H   0  0  0  0  0  0  0  0  0  0  0  0
   -1.0817   -2.3541    2.1823 H   0  0  0  0  0  0  0  0  0  0  0  0
  1  2  1  0
  2  3  2  0
  3  4  1  0
  4  5  2  0
  5  6  1  0
  6  7  2  0
  7  8  1  0
  8  9  2  0
  9 10  1  0
  9 11  1  0
 11 12  2  0
  5 13  1  0
 13 14  2  0
 14  2  1  0
 12  6  1  0
  1 15  1  0
  1 16  1  0
  1 17  1  0
  3 18  1  0
  4 19  1  0
  7 20  1  0
  8 21  1  0
 11 22  1  0
 12 23  1  0
 14 24  1  0
M  END
$$$$

     RDKit          3D

 24 25  0  0  0  0  0  0  0  0999 V2000
   -0.1124    3.1391   -3.1020 C   0  0  0  0  0  0  0  0  0  0  0  0
   -0.0631    2.1061   -2.0285 C   0  0  0  0  0  0  0  0  0  0  0  0
   -0.4084    2.3943   -0.7040 C   0  0  0  0  0  0  0  0  0  0  0  0
   -0.3673    1.4067    0.2522 C   0  0  0  0  0  0  0  0  0  0  0  0
    0.0083    0.1125   -0.1127 C   0  0  0  0  0  0  0  0  0  0  0  0
    0.0529   -1.0059    0.8737 C   0  0  0  0  0  0  0  0  0  0  0  0
    0.7246   -2.1909    0.5530 C   0  0  0  0  0  0  0  0  0  0  0  0
    0.7939   -3.2459    1.4516 C   0  0  0  0  0  0  0  0  0  0  0  0
    0.1801   -3.1323    2.6894 C   0  0  0  0  0  0  0  0  0  0  0  0
    0.2742   -4.7127    4.0419 I   0  0  0  0  0  0  0  0  0  0  0  0
   -0.4995   -1.9772    3.0343 C   0  0  0  0  0  0  0  0  0  0  0  0
   -0.5657   -0.9258    2.1286 C   0  0  0  0  0  0  0  0  0  0  0  0
    0.3513   -0.1725   -1.3738 N   0  0  0  0  0  0  0  0  0  0  0  0
    0.3147    0.7813   -2.2888 C   0  0  0  0  0  0  0  0  0  0  0  0
    0.4812    2.8449   -3.9740 H   0  0  0  0  0  0  0  0  0  0  0  0
    0.2536    4.0992   -2.7313 H   0  0  0  0  0  0  0  0  0  0  0  0
   -1.1396    3.2959   -3.4275 H   0  0  0  0  0  0  0  0  0  0  0  0
   -0.7044    3.3986   -0.4363 H   0  0  0  0  0  0  0  0  0  0  0  0
   -0.6077    1.6305    1.2826 H   0  0  0  0  0  0  0  0  0  0  0  0
    1.1965   -2.2861   -0.4193 H   0  0  0  0  0  0  0  0  0  0  0  0
    1.3308   -4.1478    1.1789 H   0  0  0  0  0  0  0  0  0  0  0  0
   -0.9861   -1.8786    3.9963 H   0  0  0  0  0  0  0  0  0  0  0  0
   -1.1131   -0.0305    2.4119 H   0  0  0  0  0  0  0  0  0  0  0  0
    0.6051    0.4970   -3.2960 H   0  0  0  0  0  0  0  0  0  0  0  0
  1  2  1  0
  2  3  2  0
  3  4  1  0
  4  5  2  0
  5  6  1  0
  6  7  2  0
  7  8  1  0
  8  9  2  0
  9 10  1  0
  9 11  1  0
 11 12  2  0
  5 13  1  0
 13 14  2  0
 14  2  1  0
 12  6  1  0
  1 15  1  0
  1 16  1  0
  1 17  1  0
  3 18  1  0
  4 19  1  0
  7 20  1  0
  8 21  1  0
 11 22  1  0
 12 23  1  0
 14 24  1  0
M  END
$$$$

     RDKit          3D

 24 25  0  0  0  0  0  0  0  0999 V2000
    4.0368   -1.5258   -0.9251 C   0  0  0  0  0  0  0  0  0  0  0  0
    2.6883   -0.9939   -0.5757 C   0  0  0  0  0  0  0  0  0  0  0  0
    2.5140    0.1968    0.1346 C   0  0  0  0  0  0  0  0  0  0  0  0
    1.2479    0.6603    0.4068 C   0  0  0  0  0  0  0  0  0  0  0  0
    0.1409   -0.0679   -0.0327 C   0  0  0  0  0  0  0  0  0  0  0  0
   -1.2540    0.3901    0.2285 C   0  0  0  0  0  0  0  0  0  0  0  0
   -2.3131   -0.5206    0.1626 C   0  0  0  0  0  0  0  0  0  0  0  0
   -3.6199   -0.1206    0.4075 C   0  0  0  0  0  0  0  0  0  0  0  0
   -3.8850    1.2042    0.7196 C   0  0  0  0  0  0  0  0  0  0  0  0
   -5.8436    1.8056    1.0878 I   0  0  0  0  0  0  0  0  0  0  0  0
   -2.8589    2.1305    0.7844 C   0  0  0  0  0  0  0  0  0  0  0  0
   -1.5539    1.7237    0.5358 C   0  0  0  0  0  0  0  0  0  0  0  0
    0.2939   -1.2160   -0.7011 N   0  0  0  0  0  0  0  0  0  0  0  0
    1.5118   -1.6539   -0.9642 C   0  0  0  0  0  0  0  0  0  0  0  0
    4.3636   -1.1263   -1.8831 H   0  0  0  0  0  0  0  0  0  0  0  0
    4.7813   -1.2328   -0.1794 H   0  0  0  0  0  0  0  0  0  0  0  0
    4.0263   -2.6167   -1.0037 H   0  0  0  0  0  0  0  0  0  0  0  0
    3.3777    0.7502    0.4749 H   0  0  0  0  0  0  0  0  0  0  0  0
    1.1074    1.5730    0.9696 H   0  0  0  0  0  0  0  0  0  0  0  0
   -2.1038   -1.5573   -0.0846 H   0  0  0  0  0  0  0  0  0  0  0  0
   -4.4230   -0.8473    0.3562 H   0  0  0  0  0  0  0  0  0  0  0  0
   -3.0565    3.1683    1.0209 H   0  0  0  0  0  0  0  0  0  0  0  0
   -0.7608    2.4642    0.5768 H   0  0  0  0  0  0  0  0  0  0  0  0
    1.5824   -2.5879   -1.5166 H   0  0  0  0  0  0  0  0  0  0  0  0
  1  2  1  0
  2  3  2  0
  3  4  1  0
  4  5  2  0
  5  6  1  0
  6  7  2  0
  7  8  1  0
  8  9  2  0
  9 10  1  0
  9 11  1  0
 11 12  2  0
  5 13  1  0
 13 14  2  0
 14  2  1  0
 12  6  1  0
  1 15  1  0
  1 16  1  0
  1 17  1  0
  3 18  1  0
  4 19  1  0
  7 20  1  0
  8 21  1  0
 11 22  1  0
 12 23  1  0
 14 24  1  0
M  END
$$$$
