
     RDKit          3D

 25 26  0  0  0  0  0  0  0  0999 V2000
    3.5811   -2.7802    1.0268 C   0  0  0  0  0  0  0  0  0  0  0  0
    2.4469   -1.8670    0.7206 C   0  0  0  0  0  0  0  0  0  0  0  0
    2.5246   -0.4893    0.9519 C   0  0  0  0  0  0  0  0  0  0  0  0
    1.4618    0.3218    0.6453 C   0  0  0  0  0  0  0  0  0  0  0  0
    0.3040   -0.2419    0.1068 C   0  0  0  0  0  0  0  0  0  0  0  0
   -0.8780    0.5883   -0.2467 C   0  0  0  0  0  0  0  0  0  0  0  0
   -1.8301    0.0943   -1.1481 C   0  0  0  0  0  0  0  0  0  0  0  0
   -2.9254    0.8504   -1.5094 C   0  0  0  0  0  0  0  0  0  0  0  0
   -3.1090    2.1206   -0.9622 C   0  0  0  0  0  0  0  0  0  0  0  0
   -4.2439    2.9053   -1.3314 C   0  0  0  0  0  0  0  0  0  0  0  0
   -5.1816    3.5468   -1.6338 N   0  0  0  0  0  0  0  0  0  0  0  0
   -2.1822    2.6236   -0.0540 C   0  0  0  0  0  0  0  0  0  0  0  0
   -1.0836    1.8660    0.2986 C   0  0  0  0  0  0  0  0  0  0  0  0
    0.2115   -1.5527   -0.1251 N   0  0  0  0  0  0  0  0  0  0  0  0
    1.2421   -2.3304    0.1747 C   0  0  0  0  0  0  0  0  0  0  0  0
    3.8947   -2.6690    2.0618 H   0  0  0  0  0  0  0  0  0  0  0  0
    3.3138   -3.8251    0.8541 H   0  0  0  0  0  0  0  0  0  0  0  0
    4.4430   -2.5346    0.4145 H   0  0  0  0  0  0  0  0  0  0  0  0
    3.4259   -0.0689    1.3712 H   0  0  0  0  0  0  0  0  0  0  0  0
    1.5215    1.3898    0.7995 H   0  0  0  0  0  0  0  0  0  0  0  0
   -1.6938   -0.8974   -1.5638 H   0  0  0  0  0  0  0  0  0  0  0  0
   -3.6487    0.4610   -2.2234 H   0  0  0  0  0  0  0  0  0  0  0  0
   -2.3255    3.6110    0.3801 H   0  0  0  0  0  0  0  0  0  0  0  0
   -0.3826    2.2619    1.0204 H   0  0  0  0  0  0  0  0  0  0  0  0
    1.1137   -3.3843   -0.0285 H   0  0  0  0  0  0  0  0  0  0  0  0
  1  2  1  0
  2  3  2  0
  3  4  1  0
  4  5  2  0
  5  6  1  0
  6  7  2  0
  7  8  1  0
  8  9  2  0
  9 10  1  0
 10 11  3  0
  9 12  1  0
 12 13  2  0
  5 14  1  0
 14 15  2  0
 15  2  1  0
 13  6  1  0
  1 16  1  0
  1 17  1  0
  1 18  1  0
  3 19  1  0
  4 20  1  0
  7 21  1  0
  8 22  1  0
 12 23  1  0
 13 24  1  0
 15 25  1  0
M  END
$$$$

     RDKit          3D

 25 26  0  0  0  0  0  0  0  0999 V2000
   -3.4453   -1.0099   -2.9537 C   0  0  0  0  0  0  0  0  0  0  0  0
   -2.3273   -0.7142   -2.0171 C   0  0  0  0  0  0  0  0  0  0  0  0
   -1.0710   -1.3145   -2.1469 C   0  0  0  0  0  0  0  0  0  0  0  0
   -0.0640   -1.0084   -1.2658 C   0  0  0  0  0  0  0  0  0  0  0  0
   -0.3058   -0.0871   -0.2472 C   0  0  0  0  0  0  0  0  0  0  0  0
    0.7562    0.2903    0.7223 C   0  0  0  0  0  0  0  0  0  0  0  0
    0.4102    0.7207    2.0089 C   0  0  0  0  0  0  0  0  0  0  0  0
    1.3778    1.0661    2.9279 C   0  0  0  0  0  0  0  0  0  0  0  0
    2.7271    1.0019    2.5781 C   0  0  0  0  0  0  0  0  0  0  0  0
    3.7309    1.3588    3.5271 C   0  0  0  0  0  0  0  0  0  0  0  0
    4.5602    1.6560    4.3083 N   0  0  0  0  0  0  0  0  0  0  0  0
    3.0899    0.5894    1.2984 C   0  0  0  0  0  0  0  0  0  0  0  0
    2.1167    0.2370    0.3858 C   0  0  0  0  0  0  0  0  0  0  0  0
   -1.4996    0.4871   -0.0974 N   0  0  0  0  0  0  0  0  0  0  0  0
   -2.4683    0.1862   -0.9519 C   0  0  0  0  0  0  0  0  0  0  0  0
   -3.2500   -0.5733   -3.9311 H   0  0  0  0  0  0  0  0  0  0  0  0
   -3.5465   -2.0835   -3.1009 H   0  0  0  0  0  0  0  0  0  0  0  0
   -4.3919   -0.6132   -2.5820 H   0  0  0  0  0  0  0  0  0  0  0  0
   -0.8988   -2.0247   -2.9412 H   0  0  0  0  0  0  0  0  0  0  0  0
    0.9067   -1.4799   -1.3447 H   0  0  0  0  0  0  0  0  0  0  0  0
   -0.6384    0.7795    2.2748 H   0  0  0  0  0  0  0  0  0  0  0  0
    1.0958    1.3913    3.9276 H   0  0  0  0  0  0  0  0  0  0  0  0
    4.1397    0.5427    1.0167 H   0  0  0  0  0  0  0  0  0  0  0  0
    2.4114   -0.0794   -0.6076 H   0  0  0  0  0  0  0  0  0  0  0  0
   -3.4157    0.6811   -0.7881 H   0  0  0  0  0  0  0  0  0  0  0  0
  1  2  1  0
  2  3  2  0
  3  4  1  0
  4  5  2  0
  5  6  1  0
  6  7  2  0
  7  8  1  0
  8  9  2  0
  9 10  1  0
 10 11  3  0
  9 12  1  0
 12 13  2  0
  5 14  1  0
 14 15  2  0
 15  2  1  0
 13  6  1  0
  1 16  1  0
  1 17  1  0
  1 18  1  0
  3 19  1  0
  4 20  1  0
  7 21  1  0
  8 22  1  0
 12 23  1  0
 13 24  1  0
 15 25  1  0
M  END
$$$$

     RDKit          3D

 25 26  0  0  0  0  0  0  0  0999 V2000
   -2.2458   -2.7310   -3.0183 C   0  0  0  0  0  0  0  0  0  0  0  0
   -1.5446   -1.8831   -2.0153 C   0  0  0  0  0  0  0  0  0  0  0  0
   -1.4436   -2.2330   -0.6669 C   0  0  0  0  0  0  0  0  0  0  0  0
   -0.7709   -1.4161    0.2100 C   0  0  0  0  0  0  0  0  0  0  0  0
   -0.1972   -0.2353   -0.2601 C   0  0  0  0  0  0  0  0  0  0  0  0
    0.5314    0.6912    0.6467 C   0  0  0  0  0  0  0  0  0  0  0  0
    1.4607    1.6008    0.1250 C   0  0  0  0  0  0  0  0  0  0  0  0
    2.1570    2.4572    0.9516 C   0  0  0  0  0  0  0  0  0  0  0  0
    1.9312    2.4356    2.3286 C   0  0  0  0  0  0  0  0  0  0  0  0
    2.6488    3.3207    3.1886 C   0  0  0  0  0  0  0  0  0  0  0  0
    3.2375    4.0485    3.8992 N   0  0  0  0  0  0  0  0  0  0  0  0
    1.0031    1.5484    2.8642 C   0  0  0  0  0  0  0  0  0  0  0  0
    0.3136    0.6906    2.0330 C   0  0  0  0  0  0  0  0  0  0  0  0
   -0.2722    0.1088   -1.5491 N   0  0  0  0  0  0  0  0  0  0  0  0
   -0.9264   -0.6801   -2.3855 C   0  0  0  0  0  0  0  0  0  0  0  0
   -1.5331   -3.1825   -3.7016 H   0  0  0  0  0  0  0  0  0  0  0  0
   -2.8050   -3.5340   -2.5366 H   0  0  0  0  0  0  0  0  0  0  0  0
   -2.9341   -2.1359   -3.6173 H   0  0  0  0  0  0  0  0  0  0  0  0
   -1.8909   -3.1472   -0.3132 H   0  0  0  0  0  0  0  0  0  0  0  0
   -0.6655   -1.6918    1.2491 H   0  0  0  0  0  0  0  0  0  0  0  0
    1.6307    1.6213   -0.9450 H   0  0  0  0  0  0  0  0  0  0  0  0
    2.8841    3.1518    0.5360 H   0  0  0  0  0  0  0  0  0  0  0  0
    0.8177    1.5326    3.9351 H   0  0  0  0  0  0  0  0  0  0  0  0
   -0.4155    0.0140    2.4596 H   0  0  0  0  0  0  0  0  0  0  0  0
   -0.9709   -0.3516   -3.4179 H   0  0  0  0  0  0  0  0  0  0  0  0
  1  2  1  0
  2  3  2  0
  3  4  1  0
  4  5  2  0
  5  6  1  0
  6  7  2  0
  7  8  1  0
  8  9  2  0
  9 10  1  0
 10 11  3  0
  9 12  1  0
 12 13  2  0
  5 14  1  0
 14 15  2  0
 15  2  1  0
 13  6  1  0
  1 16  1  0
  1 17  1  0
  1 18  1  0
  3 19  1  0
  4 20  1  0
  7 21  1  0
  8 22  1  0
 12 23  1  0
 13 24  1  0
 15 25  1  0
M  END
$$$$

     RDKit          3D

 25 26  0  0  0  0  0  0  0  0999 V2000
    4.5833    0.4187   -0.6547 C   0  0  0  0  0  0  0  0  0  0  0  0
    3.1206    0.2925   -0.4080 C   0  0  0  0  0  0  0  0  0  0  0  0
    2.5011    0.8730    0.7029 C   0  0  0  0  0  0  0  0  0  0  0  0
    1.1458    0.7465    0.8831 C   0  0  0  0  0  0  0  0  0  0  0  0
    0.3973    0.0361   -0.0549 C   0  0  0  0  0  0  0  0  0  0  0  0
   -1.0730   -0.1320    0.0862 C   0  0  0  0  0  0  0  0  0  0  0  0
   -1.7193   -1.2060   -0.5400 C   0  0  0  0  0  0  0  0  0  0  0  0
   -3.0806   -1.3871   -0.4142 C   0  0  0  0  0  0  0  0  0  0  0  0
   -3.8392   -0.4842    0.3316 C   0  0  0  0  0  0  0  0  0  0  0  0
   -5.2497   -0.6711    0.4634 C   0  0  0  0  0  0  0  0  0  0  0  0
   -6.4125   -0.8243    0.5779 N   0  0  0  0  0  0  0  0  0  0  0  0
   -3.2176    0.5982    0.9475 C   0  0  0  0  0  0  0  0  0  0  0  0
   -1.8524    0.7673    0.8284 C   0  0  0  0  0  0  0  0  0  0  0  0
    0.9695   -0.5303   -1.1190 N   0  0  0  0  0  0  0  0  0  0  0  0
    2.2777   -0.3998   -1.2870 C   0  0  0  0  0  0  0  0  0  0  0  0
    4.9384   -0.3436   -1.3523 H   0  0  0  0  0  0  0  0  0  0  0  0
    5.1418    0.3300    0.2747 H   0  0  0  0  0  0  0  0  0  0  0  0
    4.8123    1.3949   -1.0752 H   0  0  0  0  0  0  0  0  0  0  0  0
    3.0963    1.4152    1.4210 H   0  0  0  0  0  0  0  0  0  0  0  0
    0.6596    1.1827    1.7452 H   0  0  0  0  0  0  0  0  0  0  0  0
   -1.1317   -1.8971   -1.1319 H   0  0  0  0  0  0  0  0  0  0  0  0
   -3.5729   -2.2327   -0.8930 H   0  0  0  0  0  0  0  0  0  0  0  0
   -3.8051    1.3105    1.5232 H   0  0  0  0  0  0  0  0  0  0  0  0
   -1.3820    1.6140    1.3126 H   0  0  0  0  0  0  0  0  0  0  0  0
    2.6924   -0.8716   -2.1673 H   0  0  0  0  0  0  0  0  0  0  0  0
  1  2  1  0
  2  3  2  0
  3  4  1  0
  4  5  2  0
  5  6  1  0
  6  7  2  0
  7  8  1  0
  8  9  2  0
  9 10  1  0
 10 11  3  0
  9 12  1  0
 12 13  2  0
  5 14  1  0
 14 15  2  0
 15  2  1  0
 13  6  1  0
  1 16  1  0
  1 17  1  0
  1 18  1  0
  3 19  1  0
  4 20  1  0
  7 21  1  0
  8 22  1  0
 12 23  1  0
 13 24  1  0
 15 25  1  0
M  END
$$$$

     RDKit          3D

 25 26  0  0  0  0  0  0  0  0999 V2000
   -0.4754    3.4234   -3.1098 C   0  0  0  0  0  0  0  0  0  0  0  0
   -0.2963    2.3427   -2.1038 C   0  0  0  0  0  0  0  0  0  0  0  0
    0.8010    2.3092   -1.2383 C   0  0  0  0  0  0  0  0  0  0  0  0
    0.9264    1.2935   -0.3252 C   0  0  0  0  0  0  0  0  0  0  0  0
   -0.0518    0.2994   -0.2658 C   0  0  0  0  0  0  0  0  0  0  0  0
    0.0432   -0.8304    0.6974 C   0  0  0  0  0  0  0  0  0  0  0  0
   -1.1082   -1.5338    1.0741 C   0  0  0  0  0  0  0  0  0  0  0  0
   -1.0411   -2.5803    1.9699 C   0  0  0  0  0  0  0  0  0  0  0  0
    0.1884   -2.9587    2.5112 C   0  0  0  0  0  0  0  0  0  0  0  0
    0.2636   -4.0419    3.4392 C   0  0  0  0  0  0  0  0  0  0  0  0
    0.3292   -4.9383    4.2009 N   0  0  0  0  0  0  0  0  0  0  0  0
    1.3444   -2.2762    2.1453 C   0  0  0  0  0  0  0  0  0  0  0  0
    1.2709   -1.2317    1.2476 C   0  0  0  0  0  0  0  0  0  0  0  0
   -1.1151    0.3219   -1.0721 N   0  0  0  0  0  0  0  0  0  0  0  0
   -1.2245    1.3030   -1.9561 C   0  0  0  0  0  0  0  0  0  0  0  0
   -1.1616    3.1184   -3.9014 H   0  0  0  0  0  0  0  0  0  0  0  0
   -0.8719    4.3182   -2.6411 H   0  0  0  0  0  0  0  0  0  0  0  0
    0.4790    3.6969   -3.5578 H   0  0  0  0  0  0  0  0  0  0  0  0
    1.5483    3.0846   -1.2908 H   0  0  0  0  0  0  0  0  0  0  0  0
    1.7680    1.2625    0.3520 H   0  0  0  0  0  0  0  0  0  0  0  0
   -2.0613   -1.2460    0.6479 H   0  0  0  0  0  0  0  0  0  0  0  0
   -1.9461   -3.1125    2.2582 H   0  0  0  0  0  0  0  0  0  0  0  0
    2.3066   -2.5646    2.5614 H   0  0  0  0  0  0  0  0  0  0  0  0
    2.1799   -0.7247    0.9555 H   0  0  0  0  0  0  0  0  0  0  0  0
   -2.0953    1.2656   -2.5984 H   0  0  0  0  0  0  0  0  0  0  0  0
  1  2  1  0
  2  3  2  0
  3  4  1  0
  4  5  2  0
  5  6  1  0
  6  7  2  0
  7  8  1  0
  8  9  2  0
  9 10  1  0
 10 11  3  0
  9 12  1  0
 12 13  2  0
  5 14  1  0
 14 15  2  0
 15  2  1  0
 13  6  1  0
  1 16  1  0
  1 17  1  0
  1 18  1  0
  3 19  1  0
  4 20  1  0
  7 21  1  0
  8 22  1  0
 12 23  1  0
 13 24  1  0
 15 25  1  0
M  END
$$$$

     RDKit          3D

 25 26  0  0  0  0  0  0  0  0999 V2000
   -3.9474    1.9464   -1.4992 C   0  0  0  0  0  0  0  0  0  0  0  0
   -2.7076    1.2782   -1.0158 C   0  0  0  0  0  0  0  0  0  0  0  0
   -2.4089   -0.0527   -1.3177 C   0  0  0  0  0  0  0  0  0  0  0  0
   -1.2378   -0.6166   -0.8752 C   0  0  0  0  0  0  0  0  0  0  0  0
   -0.3495    0.1543   -0.1253 C   0  0  0  0  0  0  0  0  0  0  0  0
    0.9421   -0.3917    0.3713 C   0  0  0  0  0  0  0  0  0  0  0  0
    1.6211    0.2569    1.4119 C   0  0  0  0  0  0  0  0  0  0  0  0
    2.8127   -0.2354    1.8996 C   0  0  0  0  0  0  0  0  0  0  0  0
    3.3662   -1.3937    1.3522 C   0  0  0  0  0  0  0  0  0  0  0  0
    4.5966   -1.9104    1.8619 C   0  0  0  0  0  0  0  0  0  0  0  0
    5.6113   -2.3330    2.2819 N   0  0  0  0  0  0  0  0  0  0  0  0
    2.7158   -2.0438    0.3077 C   0  0  0  0  0  0  0  0  0  0  0  0
    1.5217   -1.5473   -0.1748 C   0  0  0  0  0  0  0  0  0  0  0  0
   -0.6262    1.4242    0.1897 N   0  0  0  0  0  0  0  0  0  0  0  0
   -1.7563    1.9594   -0.2436 C   0  0  0  0  0  0  0  0  0  0  0  0
   -4.3481    2.6242   -0.7445 H   0  0  0  0  0  0  0  0  0  0  0  0
   -3.7420    2.5311   -2.3905 H   0  0  0  0  0  0  0  0  0  0  0  0
   -4.7137    1.2137   -1.7539 H   0  0  0  0  0  0  0  0  0  0  0  0
   -3.1055   -0.6401   -1.8922 H   0  0  0  0  0  0  0  0  0  0  0  0
   -1.0089   -1.6486   -1.0995 H   0  0  0  0  0  0  0  0  0  0  0  0
    1.1947    1.1590    1.8323 H   0  0  0  0  0  0  0  0  0  0  0  0
    3.3263    0.2754    2.7109 H   0  0  0  0  0  0  0  0  0  0  0  0
    3.1452   -2.9405   -0.1315 H   0  0  0  0  0  0  0  0  0  0  0  0
    1.0302   -2.0609   -0.9900 H   0  0  0  0  0  0  0  0  0  0  0  0
   -1.9320    2.9920    0.0344 H   0  0  0  0  0  0  0  0  0  0  0  0
  1  2  1  0
  2  3  2  0
  3  4  1  0
  4  5  2  0
  5  6  1  0
  6  7  2  0
  7  8  1  0
  8  9  2  0
  9 10  1  0
 10 11  3  0
  9 12  1  0
 12 13  2  0
  5 14  1  0
 14 15  2  0
 15  2  1  0
 13  6  1  0
  1 16  1  0
  1 17  1  0
  1 18  1  0
  3 19  1  0
  4 20  1  0
  7 21  1  0
  8 22  1  0
 12 23  1  0
 13 24  1  0
 15 25  1  0
M  END
$$$$

     RDKit          3D

 25 26  0  0  0  0  0  0  0  0999 V2000
   -2.4362   -1.9450    3.4479 C   0  0  0  0  0  0  0  0  0  0  0  0
   -1.6197   -1.3317    2.3650 C   0  0  0  0  0  0  0  0  0  0  0  0
   -0.2424   -1.5392    2.2589 C   0  0  0  0  0  0  0  0  0  0  0  0
    0.4628   -0.9667    1.2300 C   0  0  0  0  0  0  0  0  0  0  0  0
   -0.2078   -0.1718    0.2995 C   0  0  0  0  0  0  0  0  0  0  0  0
    0.5081    0.4885   -0.8250 C   0  0  0  0  0  0  0  0  0  0  0  0
   -0.2054    0.9102   -1.9551 C   0  0  0  0  0  0  0  0  0  0  0  0
    0.4374    1.5143   -3.0145 C   0  0  0  0  0  0  0  0  0  0  0  0
    1.8168    1.7252   -2.9692 C   0  0  0  0  0  0  0  0  0  0  0  0
    2.4829    2.3467   -4.0686 C   0  0  0  0  0  0  0  0  0  0  0  0
    3.0284    2.8533   -4.9791 N   0  0  0  0  0  0  0  0  0  0  0  0
    2.5401    1.3267   -1.8495 C   0  0  0  0  0  0  0  0  0  0  0  0
    1.8935    0.7181   -0.7947 C   0  0  0  0  0  0  0  0  0  0  0  0
   -1.5259    0.0301    0.3777 N   0  0  0  0  0  0  0  0  0  0  0  0
   -2.1982   -0.5240    1.3757 C   0  0  0  0  0  0  0  0  0  0  0  0
   -2.8237   -2.9080    3.1307 H   0  0  0  0  0  0  0  0  0  0  0  0
   -1.8347   -2.1178    4.3401 H   0  0  0  0  0  0  0  0  0  0  0  0
   -3.2838   -1.3119    3.7088 H   0  0  0  0  0  0  0  0  0  0  0  0
    0.2663   -2.1522    2.9849 H   0  0  0  0  0  0  0  0  0  0  0  0
    1.5254   -1.1375    1.1324 H   0  0  0  0  0  0  0  0  0  0  0  0
   -1.2775    0.7572   -1.9873 H   0  0  0  0  0  0  0  0  0  0  0  0
   -0.1274    1.8282   -3.8909 H   0  0  0  0  0  0  0  0  0  0  0  0
    3.6133    1.4957   -1.8021 H   0  0  0  0  0  0  0  0  0  0  0  0
    2.4683    0.4281    0.0746 H   0  0  0  0  0  0  0  0  0  0  0  0
   -3.2607   -0.3164    1.4098 H   0  0  0  0  0  0  0  0  0  0  0  0
  1  2  1  0
  2  3  2  0
  3  4  1  0
  4  5  2  0
  5  6  1  0
  6  7  2  0
  7  8  1  0
  8  9  2  0
  9 10  1  0
 10 11  3  0
  9 12  1  0
 12 13  2  0
  5 14  1  0
 14 15  2  0
 15  2  1  0
 13  6  1  0
  1 16  1  0
  1 17  1  0
  1 18  1  0
  3 19  1  0
  4 20  1  0
  7 21  1  0
  8 22  1  0
 12 23  1  0
 13 24  1  0
 15 25  1  0
M  END
$$$$

     RDKit          3D

 25 26  0  0  0  0  0  0  0  0999 V2000
   -4.0228    2.3239    0.2410 C   0  0  0  0  0  0  0  0  0  0  0  0
   -2.7611    1.5433    0.1298 C   0  0  0  0  0  0  0  0  0  0  0  0
   -2.4982    0.6788   -0.9348 C   0  0  0  0  0  0  0  0  0  0  0  0
   -1.3074   -0.0032   -0.9947 C   0  0  0  0  0  0  0  0  0  0  0  0
   -0.3610    0.1806    0.0142 C   0  0  0  0  0  0  0  0  0  0  0  0
    0.9561   -0.5159   -0.0005 C   0  0  0  0  0  0  0  0  0  0  0  0
    1.7709   -0.4956    1.1408 C   0  0  0  0  0  0  0  0  0  0  0  0
    2.9965   -1.1251    1.1526 C   0  0  0  0  0  0  0  0  0  0  0  0
    3.4442   -1.8071    0.0208 C   0  0  0  0  0  0  0  0  0  0  0  0
    4.7070   -2.4725    0.0341 C   0  0  0  0  0  0  0  0  0  0  0  0
    5.7458   -3.0272    0.0494 N   0  0  0  0  0  0  0  0  0  0  0  0
    2.6542   -1.8373   -1.1226 C   0  0  0  0  0  0  0  0  0  0  0  0
    1.4312   -1.1990   -1.1320 C   0  0  0  0  0  0  0  0  0  0  0  0
   -0.5998    0.9978    1.0462 N   0  0  0  0  0  0  0  0  0  0  0  0
   -1.7501    1.6499    1.0950 C   0  0  0  0  0  0  0  0  0  0  0  0
   -4.4118    2.2942    1.2576 H   0  0  0  0  0  0  0  0  0  0  0  0
   -4.7848    1.9376   -0.4350 H   0  0  0  0  0  0  0  0  0  0  0  0
   -3.8516    3.3651   -0.0095 H   0  0  0  0  0  0  0  0  0  0  0  0
   -3.2338    0.5435   -1.7104 H   0  0  0  0  0  0  0  0  0  0  0  0
   -1.1077   -0.6773   -1.8142 H   0  0  0  0  0  0  0  0  0  0  0  0
    1.4271    0.0279    2.0242 H   0  0  0  0  0  0  0  0  0  0  0  0
    3.6179   -1.0948    2.0444 H   0  0  0  0  0  0  0  0  0  0  0  0
    2.9969   -2.3604   -2.0108 H   0  0  0  0  0  0  0  0  0  0  0  0
    0.8370   -1.2281   -2.0345 H   0  0  0  0  0  0  0  0  0  0  0  0
   -1.8945    2.3009    1.9487 H   0  0  0  0  0  0  0  0  0  0  0  0
  1  2  1  0
  2  3  2  0
  3  4  1  0
  4  5  2  0
  5  6  1  0
  6  7  2  0
  7  8  1  0
  8  9  2  0
  9 10  1  0
 10 11  3  0
  9 12  1  0
 12 13  2  0
  5 14  1  0
 14 15  2  0
 15  2  1  0
 13  6  1  0
  1 16  1  0
  1 17  1  0
  1 18  1  0
  3 19  1  0
  4 20  1  0
  7 21  1  0
  8 22  1  0
 12 23  1  0
 13 24  1  0
 15 25  1  0
M  END
$$$$

     RDKit          3D

 25 26  0  0  0  0  0  0  0  0999 V2000
   -0.5147   -2.6076    3.8130 C   0  0  0  0  0  0  0  0  0  0  0  0
   -0.3105   -1.7694    2.5993 C   0  0  0  0  0  0  0  0  0  0  0  0
    0.9307   -1.6589    1.9658 C   0  0  0  0  0  0  0  0  0  0  0  0
    1.0648   -0.8915    0.8348 C   0  0  0  0  0  0  0  0  0  0  0  0
   -0.0489   -0.2181    0.3347 C   0  0  0  0  0  0  0  0  0  0  0  0
    0.0424    0.6261   -0.8850 C   0  0  0  0  0  0  0  0  0  0  0  0
   -0.8216    1.7140   -1.0557 C   0  0  0  0  0  0  0  0  0  0  0  0
   -0.7463    2.5109   -2.1792 C   0  0  0  0  0  0  0  0  0  0  0  0
    0.1895    2.2275   -3.1748 C   0  0  0  0  0  0  0  0  0  0  0  0
    0.2666    3.0469   -4.3414 C   0  0  0  0  0  0  0  0  0  0  0  0
    0.3236    3.7310   -5.2987 N   0  0  0  0  0  0  0  0  0  0  0  0
    1.0493    1.1421   -3.0268 C   0  0  0  0  0  0  0  0  0  0  0  0
    0.9765    0.3567   -1.8953 C   0  0  0  0  0  0  0  0  0  0  0  0
   -1.2412   -0.3014    0.9285 N   0  0  0  0  0  0  0  0  0  0  0  0
   -1.3643   -1.0549    2.0112 C   0  0  0  0  0  0  0  0  0  0  0  0
    0.4160   -2.7197    4.3692 H   0  0  0  0  0  0  0  0  0  0  0  0
   -0.8534   -3.6016    3.5350 H   0  0  0  0  0  0  0  0  0  0  0  0
   -1.2673   -2.1724    4.4720 H   0  0  0  0  0  0  0  0  0  0  0  0
    1.7862   -2.1724    2.3782 H   0  0  0  0  0  0  0  0  0  0  0  0
    2.0220   -0.7968    0.3367 H   0  0  0  0  0  0  0  0  0  0  0  0
   -1.5573    1.9233   -0.2884 H   0  0  0  0  0  0  0  0  0  0  0  0
   -1.4126    3.3627   -2.2911 H   0  0  0  0  0  0  0  0  0  0  0  0
    1.7766    0.9100   -3.8014 H   0  0  0  0  0  0  0  0  0  0  0  0
    1.6471   -0.4870   -1.7928 H   0  0  0  0  0  0  0  0  0  0  0  0
   -2.3533   -1.0995    2.4525 H   0  0  0  0  0  0  0  0  0  0  0  0
  1  2  1  0
  2  3  2  0
  3  4  1  0
  4  5  2  0
  5  6  1  0
  6  7  2  0
  7  8  1  0
  8  9  2  0
  9 10  1  0
 10 11  3  0
  9 12  1  0
 12 13  2  0
  5 14  1  0
 14 15  2  0
 15  2  1  0
 13  6  1  0
  1 16  1  0
  1 17  1  0
  1 18  1  0
  3 19  1  0
  4 20  1  0
  7 21  1  0
  8 22  1  0
 12 23  1  0
 13 24  1  0
 15 25  1  0
M  END
$$$$

     RDKit          3D

 25 26  0  0  0  0  0  0  0  0999 V2000
    1.4069   -4.4016    0.5231 C   0  0  0  0  0  0  0  0  0  0  0  0
    1.0008   -2.9800    0.3568 C   0  0  0  0  0  0  0  0  0  0  0  0
    1.6090   -1.9514    1.0808 C   0  0  0  0  0  0  0  0  0  0  0  0
    1.1852   -0.6552    0.9278 C   0  0  0  0  0  0  0  0  0  0  0  0
    0.1448   -0.3751    0.0397 C   0  0  0  0  0  0  0  0  0  0  0  0
   -0.3703    1.0063   -0.1669 C   0  0  0  0  0  0  0  0  0  0  0  0
   -1.2428    1.2775   -1.2327 C   0  0  0  0  0  0  0  0  0  0  0  0
   -1.7348    2.5468   -1.4464 C   0  0  0  0  0  0  0  0  0  0  0  0
   -1.3691    3.5903   -0.5956 C   0  0  0  0  0  0  0  0  0  0  0  0
   -1.8758    4.9072   -0.8159 C   0  0  0  0  0  0  0  0  0  0  0  0
   -2.2962    5.9929   -0.9963 N   0  0  0  0  0  0  0  0  0  0  0  0
   -0.5090    3.3428    0.4690 C   0  0  0  0  0  0  0  0  0  0  0  0
   -0.0232    2.0692    0.6821 C   0  0  0  0  0  0  0  0  0  0  0  0
   -0.4393   -1.3435   -0.6715 N   0  0  0  0  0  0  0  0  0  0  0  0
   -0.0257   -2.5918   -0.5142 C   0  0  0  0  0  0  0  0  0  0  0  0
    1.0507   -5.0159   -0.3043 H   0  0  0  0  0  0  0  0  0  0  0  0
    2.4905   -4.4873    0.5872 H   0  0  0  0  0  0  0  0  0  0  0  0
    1.0043   -4.8082    1.4459 H   0  0  0  0  0  0  0  0  0  0  0  0
    2.4102   -2.1855    1.7636 H   0  0  0  0  0  0  0  0  0  0  0  0
    1.6566    0.1387    1.4828 H   0  0  0  0  0  0  0  0  0  0  0  0
   -1.5301    0.4725   -1.8963 H   0  0  0  0  0  0  0  0  0  0  0  0
   -2.4130    2.7412   -2.2757 H   0  0  0  0  0  0  0  0  0  0  0  0
   -0.2212    4.1482    1.1396 H   0  0  0  0  0  0  0  0  0  0  0  0
    0.6245    1.8968    1.5306 H   0  0  0  0  0  0  0  0  0  0  0  0
   -0.5330   -3.3353   -1.1132 H   0  0  0  0  0  0  0  0  0  0  0  0
  1  2  1  0
  2  3  2  0
  3  4  1  0
  4  5  2  0
  5  6  1  0
  6  7  2  0
  7  8  1  0
  8  9  2  0
  9 10  1  0
 10 11  3  0
  9 12  1  0
 12 13  2  0
  5 14  1  0
 14 15  2  0
 15  2  1  0
 13  6  1  0
  1 16  1  0
  1 17  1  0
  1 18  1  0
  3 19  1  0
  4 20  1  0
  7 21  1  0
  8 22  1  0
 12 23  1  0
 13 24  1  0
 15 25  1  0
M  END
$$$$

     RDKit          3D

 25 26  0  0  0  0  0  0  0  0999 V2000
    3.7434   -0.1900    2.7566 C   0  0  0  0  0  0  0  0  0  0  0  0
    2.5713   -0.1512    1.8398 C   0  0  0  0  0  0  0  0  0  0  0  0
    2.4629   -0.9886    0.7275 C   0  0  0  0  0  0  0  0  0  0  0  0
    1.3523   -0.9315   -0.0783 C   0  0  0  0  0  0  0  0  0  0  0  0
    0.3348   -0.0269    0.2233 C   0  0  0  0  0  0  0  0  0  0  0  0
   -0.8927    0.0924   -0.6126 C   0  0  0  0  0  0  0  0  0  0  0  0
   -1.9356    0.9343   -0.1979 C   0  0  0  0  0  0  0  0  0  0  0  0
   -3.0881    1.0618   -0.9430 C   0  0  0  0  0  0  0  0  0  0  0  0
   -3.2336    0.3483   -2.1336 C   0  0  0  0  0  0  0  0  0  0  0  0
   -4.4288    0.4691   -2.9060 C   0  0  0  0  0  0  0  0  0  0  0  0
   -5.4128    0.5549   -3.5457 N   0  0  0  0  0  0  0  0  0  0  0  0
   -2.2093   -0.4855   -2.5671 C   0  0  0  0  0  0  0  0  0  0  0  0
   -1.0582   -0.6100   -1.8178 C   0  0  0  0  0  0  0  0  0  0  0  0
    0.4184    0.7804    1.2901 N   0  0  0  0  0  0  0  0  0  0  0  0
    1.4945    0.7184    2.0581 C   0  0  0  0  0  0  0  0  0  0  0  0
    4.0571    0.8142    3.0357 H   0  0  0  0  0  0  0  0  0  0  0  0
    4.5865   -0.7027    2.2939 H   0  0  0  0  0  0  0  0  0  0  0  0
    3.4915   -0.7231    3.6686 H   0  0  0  0  0  0  0  0  0  0  0  0
    3.2531   -1.6832    0.5021 H   0  0  0  0  0  0  0  0  0  0  0  0
    1.2708   -1.5839   -0.9351 H   0  0  0  0  0  0  0  0  0  0  0  0
   -1.8255    1.4864    0.7242 H   0  0  0  0  0  0  0  0  0  0  0  0
   -3.8884    1.7171   -0.6071 H   0  0  0  0  0  0  0  0  0  0  0  0
   -2.3102   -1.0384   -3.4968 H   0  0  0  0  0  0  0  0  0  0  0  0
   -0.2736   -1.2600   -2.1807 H   0  0  0  0  0  0  0  0  0  0  0  0
    1.5205    1.3977    2.9019 H   0  0  0  0  0  0  0  0  0  0  0  0
  1  2  1  0
  2  3  2  0
  3  4  1  0
  4  5  2  0
  5  6  1  0
  6  7  2  0
  7  8  1  0
  8  9  2  0
  9 10  1  0
 10 11  3  0
  9 12  1  0
 12 13  2  0
  5 14  1  0
 14 15  2  0
 15  2  1  0
 13  6  1  0
  1 16  1  0
  1 17  1  0
  1 18  1  0
  3 19  1  0
  4 20  1  0
  7 21  1  0
  8 22  1  0
 12 23  1  0
 13 24  1  0
 15 25  1  0
M  END
$$$$

     RDKit          3D

 25 26  0  0  0  0  0  0  0  0999 V2000
    3.3863   -3.1366    0.5837 C   0  0  0  0  0  0  0  0  0  0  0  0
    2.3065   -2.1389    0.3534 C   0  0  0  0  0  0  0  0  0  0  0  0
    1.5092   -2.1597   -0.7942 C   0  0  0  0  0  0  0  0  0  0  0  0
    0.5091   -1.2347   -0.9589 C   0  0  0  0  0  0  0  0  0  0  0  0
    0.2944   -0.2743    0.0300 C   0  0  0  0  0  0  0  0  0  0  0  0
   -0.7751    0.7571   -0.0840 C   0  0  0  0  0  0  0  0  0  0  0  0
   -0.9410    1.7047    0.9389 C   0  0  0  0  0  0  0  0  0  0  0  0
   -1.9209    2.6706    0.8647 C   0  0  0  0  0  0  0  0  0  0  0  0
   -2.7698    2.7202   -0.2415 C   0  0  0  0  0  0  0  0  0  0  0  0
   -3.7828    3.7238   -0.3271 C   0  0  0  0  0  0  0  0  0  0  0  0
   -4.6143    4.5531   -0.3940 N   0  0  0  0  0  0  0  0  0  0  0  0
   -2.6267    1.7883   -1.2637 C   0  0  0  0  0  0  0  0  0  0  0  0
   -1.6432    0.8248   -1.1865 C   0  0  0  0  0  0  0  0  0  0  0  0
    1.0480   -0.2402    1.1364 N   0  0  0  0  0  0  0  0  0  0  0  0
    2.0130   -1.1341    1.2852 C   0  0  0  0  0  0  0  0  0  0  0  0
    2.9887   -4.0145    1.0812 H   0  0  0  0  0  0  0  0  0  0  0  0
    4.1801   -2.7250    1.2065 H   0  0  0  0  0  0  0  0  0  0  0  0
    3.8161   -3.4675   -0.3606 H   0  0  0  0  0  0  0  0  0  0  0  0
    1.6847   -2.9029   -1.5538 H   0  0  0  0  0  0  0  0  0  0  0  0
   -0.1035   -1.2518   -1.8472 H   0  0  0  0  0  0  0  0  0  0  0  0
   -0.2823    1.6686    1.7959 H   0  0  0  0  0  0  0  0  0  0  0  0
   -2.0367    3.3960    1.6671 H   0  0  0  0  0  0  0  0  0  0  0  0
   -3.2904    1.8128   -2.1235 H   0  0  0  0  0  0  0  0  0  0  0  0
   -1.5486    0.1168   -1.9997 H   0  0  0  0  0  0  0  0  0  0  0  0
    2.5993   -1.0566    2.1917 H   0  0  0  0  0  0  0  0  0  0  0  0
  1  2  1  0
  2  3  2  0
  3  4  1  0
  4  5  2  0
  5  6  1  0
  6  7  2  0
  7  8  1  0
  8  9  2  0
  9 10  1  0
 10 11  3  0
  9 12  1  0
 12 13  2  0
  5 14  1  0
 14 15  2  0
 15  2  1  0
 13  6  1  0
  1 16  1  0
  1 17  1  0
  1 18  1  0
  3 19  1  0
  4 20  1  0
  7 21  1  0
  8 22  1  0
 12 23  1  0
 13 24  1  0
 15 25  1  0
M  END
$$$$
