
     RDKit          3D

 26 27  0  0  0  0  0  0  0  0999 V2000
    4.3370   -1.5137    1.5646 C   0  0  0  0  0  0  0  0  0  0  0  0
    2.9940   -1.0327    1.1273 C   0  0  0  0  0  0  0  0  0  0  0  0
    2.1344   -0.3331    1.9812 C   0  0  0  0  0  0  0  0  0  0  0  0
    0.9062    0.0900    1.5291 C   0  0  0  0  0  0  0  0  0  0  0  0
    0.5295   -0.1868    0.2177 C   0  0  0  0  0  0  0  0  0  0  0  0
   -0.7888    0.2370   -0.3251 C   0  0  0  0  0  0  0  0  0  0  0  0
   -0.9668    0.3212   -1.7087 C   0  0  0  0  0  0  0  0  0  0  0  0
   -2.1706    0.7294   -2.2479 C   0  0  0  0  0  0  0  0  0  0  0  0
   -3.2184    1.0545   -1.3956 C   0  0  0  0  0  0  0  0  0  0  0  0
   -4.4788    1.4953   -1.9517 N   0  0  0  0  0  0  0  0  0  0  0  0
   -4.5708    1.5667   -3.1500 O   0  0  0  0  0  0  0  0  0  0  0  0
   -5.3737    1.7709   -1.2004 O   0  0  0  0  0  0  0  0  0  0  0  0
   -3.0786    0.9662   -0.0198 C   0  0  0  0  0  0  0  0  0  0  0  0
   -1.8734    0.5517    0.5073 C   0  0  0  0  0  0  0  0  0  0  0  0
    1.3411   -0.8392   -0.6172 N   0  0  0  0  0  0  0  0  0  0  0  0
    2.5245   -1.2453   -0.1760 C   0  0  0  0  0  0  0  0  0  0  0  0
    4.2891   -1.9464    2.5587 H   0  0  0  0  0  0  0  0  0  0  0  0
    5.0379   -0.6939    1.6103 H   0  0  0  0  0  0  0  0  0  0  0  0
    4.7309   -2.2622    0.8819 H   0  0  0  0  0  0  0  0  0  0  0  0
    2.4405   -0.1217    2.9915 H   0  0  0  0  0  0  0  0  0  0  0  0
    0.2385    0.6399    2.1791 H   0  0  0  0  0  0  0  0  0  0  0  0
   -0.1453    0.0602   -2.3600 H   0  0  0  0  0  0  0  0  0  0  0  0
   -2.2997    0.7960   -3.3190 H   0  0  0  0  0  0  0  0  0  0  0  0
   -3.9027    1.2168    0.6325 H   0  0  0  0  0  0  0  0  0  0  0  0
   -1.7754    0.4573    1.5776 H   0  0  0  0  0  0  0  0  0  0  0  0
    3.1393   -1.7781   -0.8877 H   0  0  0  0  0  0  0  0  0  0  0  0
  1  2  1  0
  2  3  2  0
  3  4  1  0
  4  5  2  0
  5  6  1  0
  6  7  2  0
  7  8  1  0
  8  9  2  0
  9 10  1  0
 10 11  2  0
 10 12  1  0
  9 13  1  0
 13 14  2  0
  5 15  1  0
 15 16  2  0
 16  2  1  0
 14  6  1  0
  1 17  1  0
  1 18  1  0
  1 19  1  0
  3 20  1  0
  4 21  1  0
  7 22  1  0
  8 23  1  0
 13 24  1  0
 14 25  1  0
 16 26  1  0
M  CHG  2  10   1  12  -1
M  END
$$$$

     RDKit          3D

 26 27  0  0  0  0  0  0  0  0999 V2000
    4.7139   -0.5151    1.0230 C   0  0  0  0  0  0  0  0  0  0  0  0
    3.2563   -0.4091    0.7268 C   0  0  0  0  0  0  0  0  0  0  0  0
    2.3757   -1.4843    0.8601 C   0  0  0  0  0  0  0  0  0  0  0  0
    1.0418   -1.3236    0.5640 C   0  0  0  0  0  0  0  0  0  0  0  0
    0.5831   -0.0826    0.1303 C   0  0  0  0  0  0  0  0  0  0  0  0
   -0.8461    0.1460   -0.2099 C   0  0  0  0  0  0  0  0  0  0  0  0
   -1.3635    1.4452   -0.2051 C   0  0  0  0  0  0  0  0  0  0  0  0
   -2.6918    1.6832   -0.4995 C   0  0  0  0  0  0  0  0  0  0  0  0
   -3.5153    0.6133   -0.8278 C   0  0  0  0  0  0  0  0  0  0  0  0
   -4.9074    0.8512   -1.1445 N   0  0  0  0  0  0  0  0  0  0  0  0
   -5.3161    1.9828   -1.0669 O   0  0  0  0  0  0  0  0  0  0  0  0
   -5.5930   -0.0790   -1.4627 O   0  0  0  0  0  0  0  0  0  0  0  0
   -3.0266   -0.6824   -0.8604 C   0  0  0  0  0  0  0  0  0  0  0  0
   -1.7041   -0.9108   -0.5462 C   0  0  0  0  0  0  0  0  0  0  0  0
    1.4077    0.9600    0.0086 N   0  0  0  0  0  0  0  0  0  0  0  0
    2.6906    0.7989    0.2950 C   0  0  0  0  0  0  0  0  0  0  0  0
    4.9889   -1.5313    1.2954 H   0  0  0  0  0  0  0  0  0  0  0  0
    5.3052   -0.2160    0.1647 H   0  0  0  0  0  0  0  0  0  0  0  0
    4.9897    0.1392    1.8407 H   0  0  0  0  0  0  0  0  0  0  0  0
    2.7394   -2.4390    1.1944 H   0  0  0  0  0  0  0  0  0  0  0  0
    0.3510   -2.1457    0.6789 H   0  0  0  0  0  0  0  0  0  0  0  0
   -0.7071    2.2703    0.0317 H   0  0  0  0  0  0  0  0  0  0  0  0
   -3.0911    2.6882   -0.4724 H   0  0  0  0  0  0  0  0  0  0  0  0
   -3.6723   -1.5065   -1.1265 H   0  0  0  0  0  0  0  0  0  0  0  0
   -1.3307   -1.9223   -0.5658 H   0  0  0  0  0  0  0  0  0  0  0  0
    3.3218    1.6695    0.1738 H   0  0  0  0  0  0  0  0  0  0  0  0
  1  2  1  0
  2  3  2  0
  3  4  1  0
  4  5  2  0
  5  6  1  0
  6  7  2  0
  7  8  1  0
  8  9  2  0
  9 10  1  0
 10 11  2  0
 10 12  1  0
  9 13  1  0
 13 14  2  0
  5 15  1  0
 15 16  2  0
 16  2  1  0
 14  6  1  0
  1 17  1  0
  1 18  1  0
  1 19  1  0
  3 20  1  0
  4 21  1  0
  7 22  1  0
  8 23  1  0
 13 24  1  0
 14 25  1  0
 16 26  1  0
M  CHG  2  10   1  12  -1
M  END
$$$$

     RDKit          3D

 26 27  0  0  0  0  0  0  0  0999 V2000
    0.7864    1.8029   -4.4367 C   0  0  0  0  0  0  0  0  0  0  0  0
    0.5386    1.1973   -3.0971 C   0  0  0  0  0  0  0  0  0  0  0  0
    0.2849   -0.1635   -2.9206 C   0  0  0  0  0  0  0  0  0  0  0  0
    0.0530   -0.6653   -1.6606 C   0  0  0  0  0  0  0  0  0  0  0  0
    0.0771    0.1957   -0.5658 C   0  0  0  0  0  0  0  0  0  0  0  0
   -0.1512   -0.2850    0.8243 C   0  0  0  0  0  0  0  0  0  0  0  0
    0.1519    0.5518    1.9049 C   0  0  0  0  0  0  0  0  0  0  0  0
   -0.0357    0.1325    3.2066 C   0  0  0  0  0  0  0  0  0  0  0  0
   -0.5486   -1.1364    3.4410 C   0  0  0  0  0  0  0  0  0  0  0  0
   -0.7580   -1.5855    4.8010 N   0  0  0  0  0  0  0  0  0  0  0  0
   -0.4568   -0.8335    5.6929 O   0  0  0  0  0  0  0  0  0  0  0  0
   -1.2196   -2.6771    4.9821 O   0  0  0  0  0  0  0  0  0  0  0  0
   -0.8686   -1.9842    2.3937 C   0  0  0  0  0  0  0  0  0  0  0  0
   -0.6699   -1.5590    1.0977 C   0  0  0  0  0  0  0  0  0  0  0  0
    0.3192    1.5007   -0.7178 N   0  0  0  0  0  0  0  0  0  0  0  0
    0.5404    1.9771   -1.9322 C   0  0  0  0  0  0  0  0  0  0  0  0
   -0.0473    2.4269   -4.7352 H   0  0  0  0  0  0  0  0  0  0  0  0
    1.6691    2.4296   -4.4203 H   0  0  0  0  0  0  0  0  0  0  0  0
    0.9230    1.0370   -5.1967 H   0  0  0  0  0  0  0  0  0  0  0  0
    0.2733   -0.8210   -3.7698 H   0  0  0  0  0  0  0  0  0  0  0  0
   -0.1346   -1.7175   -1.5205 H   0  0  0  0  0  0  0  0  0  0  0  0
    0.5369    1.5420    1.7126 H   0  0  0  0  0  0  0  0  0  0  0  0
    0.2093    0.7813    4.0369 H   0  0  0  0  0  0  0  0  0  0  0  0
   -1.2734   -2.9649    2.5892 H   0  0  0  0  0  0  0  0  0  0  0  0
   -0.9278   -2.2227    0.2889 H   0  0  0  0  0  0  0  0  0  0  0  0
    0.7285    3.0409   -1.9985 H   0  0  0  0  0  0  0  0  0  0  0  0
  1  2  1  0
  2  3  2  0
  3  4  1  0
  4  5  2  0
  5  6  1  0
  6  7  2  0
  7  8  1  0
  8  9  2  0
  9 10  1  0
 10 11  2  0
 10 12  1  0
  9 13  1  0
 13 14  2  0
  5 15  1  0
 15 16  2  0
 16  2  1  0
 14  6  1  0
  1 17  1  0
  1 18  1  0
  1 19  1  0
  3 20  1  0
  4 21  1  0
  7 22  1  0
  8 23  1  0
 13 24  1  0
 14 25  1  0
 16 26  1  0
M  CHG  2  10   1  12  -1
M  END
$$$$

     RDKit          3D

 26 27  0  0  0  0  0  0  0  0999 V2000
   -3.7134    2.6662   -1.6275 C   0  0  0  0  0  0  0  0  0  0  0  0
   -2.6138    1.8179   -1.0907 C   0  0  0  0  0  0  0  0  0  0  0  0
   -2.8471    0.6563   -0.3534 C   0  0  0  0  0  0  0  0  0  0  0  0
   -1.7888   -0.0946    0.1038 C   0  0  0  0  0  0  0  0  0  0  0  0
   -0.4865    0.3156   -0.1737 C   0  0  0  0  0  0  0  0  0  0  0  0
    0.7046   -0.4529    0.2871 C   0  0  0  0  0  0  0  0  0  0  0  0
    1.9873   -0.0407   -0.0972 C   0  0  0  0  0  0  0  0  0  0  0  0
    3.1100   -0.7349    0.3062 C   0  0  0  0  0  0  0  0  0  0  0  0
    2.9604   -1.8586    1.1105 C   0  0  0  0  0  0  0  0  0  0  0  0
    4.1314   -2.5934    1.5369 N   0  0  0  0  0  0  0  0  0  0  0  0
    5.2075   -2.2077    1.1594 O   0  0  0  0  0  0  0  0  0  0  0  0
    3.9850   -3.5469    2.2518 O   0  0  0  0  0  0  0  0  0  0  0  0
    1.7065   -2.2907    1.5077 C   0  0  0  0  0  0  0  0  0  0  0  0
    0.5922   -1.5910    1.0997 C   0  0  0  0  0  0  0  0  0  0  0  0
   -0.2456    1.4294   -0.8755 N   0  0  0  0  0  0  0  0  0  0  0  0
   -1.2691    2.1449   -1.3126 C   0  0  0  0  0  0  0  0  0  0  0  0
   -3.5989    3.6955   -1.3082 H   0  0  0  0  0  0  0  0  0  0  0  0
   -4.6849    2.3096   -1.3001 H   0  0  0  0  0  0  0  0  0  0  0  0
   -3.7010    2.6671   -2.7082 H   0  0  0  0  0  0  0  0  0  0  0  0
   -3.8539    0.3468   -0.1441 H   0  0  0  0  0  0  0  0  0  0  0  0
   -1.9705   -0.9948    0.6711 H   0  0  0  0  0  0  0  0  0  0  0  0
    2.0942    0.8317   -0.7243 H   0  0  0  0  0  0  0  0  0  0  0  0
    4.0993   -0.4155    0.0037 H   0  0  0  0  0  0  0  0  0  0  0  0
    1.5992   -3.1642    2.1308 H   0  0  0  0  0  0  0  0  0  0  0  0
   -0.3794   -1.9325    1.4210 H   0  0  0  0  0  0  0  0  0  0  0  0
   -1.0248    3.0375   -1.8742 H   0  0  0  0  0  0  0  0  0  0  0  0
  1  2  1  0
  2  3  2  0
  3  4  1  0
  4  5  2  0
  5  6  1  0
  6  7  2  0
  7  8  1  0
  8  9  2  0
  9 10  1  0
 10 11  2  0
 10 12  1  0
  9 13  1  0
 13 14  2  0
  5 15  1  0
 15 16  2  0
 16  2  1  0
 14  6  1  0
  1 17  1  0
  1 18  1  0
  1 19  1  0
  3 20  1  0
  4 21  1  0
  7 22  1  0
  8 23  1  0
 13 24  1  0
 14 25  1  0
 16 26  1  0
M  CHG  2  10   1  12  -1
M  END
$$$$

     RDKit          3D

 26 27  0  0  0  0  0  0  0  0999 V2000
    1.6037   -4.1292    1.9835 C   0  0  0  0  0  0  0  0  0  0  0  0
    1.0914   -2.8486    1.4141 C   0  0  0  0  0  0  0  0  0  0  0  0
    0.3428   -1.9374    2.1631 C   0  0  0  0  0  0  0  0  0  0  0  0
   -0.1061   -0.7726    1.5844 C   0  0  0  0  0  0  0  0  0  0  0  0
    0.1989   -0.5094    0.2512 C   0  0  0  0  0  0  0  0  0  0  0  0
   -0.2689    0.7289   -0.4235 C   0  0  0  0  0  0  0  0  0  0  0  0
    0.4486    1.2562   -1.4998 C   0  0  0  0  0  0  0  0  0  0  0  0
    0.0373    2.4155   -2.1291 C   0  0  0  0  0  0  0  0  0  0  0  0
   -1.1129    3.0545   -1.6851 C   0  0  0  0  0  0  0  0  0  0  0  0
   -1.5514    4.2693   -2.3397 N   0  0  0  0  0  0  0  0  0  0  0  0
   -0.8742    4.7031   -3.2349 O   0  0  0  0  0  0  0  0  0  0  0  0
   -2.5700    4.7839   -1.9668 O   0  0  0  0  0  0  0  0  0  0  0  0
   -1.8514    2.5488   -0.6282 C   0  0  0  0  0  0  0  0  0  0  0  0
   -1.4306    1.3920   -0.0082 C   0  0  0  0  0  0  0  0  0  0  0  0
    0.9291   -1.3554   -0.4733 N   0  0  0  0  0  0  0  0  0  0  0  0
    1.3542   -2.4795    0.0874 C   0  0  0  0  0  0  0  0  0  0  0  0
    1.0508   -4.4130    2.8746 H   0  0  0  0  0  0  0  0  0  0  0  0
    1.5292   -4.9351    1.2599 H   0  0  0  0  0  0  0  0  0  0  0  0
    2.6435   -4.0324    2.2627 H   0  0  0  0  0  0  0  0  0  0  0  0
    0.1173   -2.1476    3.1941 H   0  0  0  0  0  0  0  0  0  0  0  0
   -0.6842   -0.0591    2.1550 H   0  0  0  0  0  0  0  0  0  0  0  0
    1.3357    0.7420   -1.8416 H   0  0  0  0  0  0  0  0  0  0  0  0
    0.5986    2.8272   -2.9578 H   0  0  0  0  0  0  0  0  0  0  0  0
   -2.7483    3.0502   -0.2960 H   0  0  0  0  0  0  0  0  0  0  0  0
   -2.0157    0.9846    0.8019 H   0  0  0  0  0  0  0  0  0  0  0  0
    1.9325   -3.1369   -0.5479 H   0  0  0  0  0  0  0  0  0  0  0  0
  1  2  1  0
  2  3  2  0
  3  4  1  0
  4  5  2  0
  5  6  1  0
  6  7  2  0
  7  8  1  0
  8  9  2  0
  9 10  1  0
 10 11  2  0
 10 12  1  0
  9 13  1  0
 13 14  2  0
  5 15  1  0
 15 16  2  0
 16  2  1  0
 14  6  1  0
  1 17  1  0
  1 18  1  0
  1 19  1  0
  3 20  1  0
  4 21  1  0
  7 22  1  0
  8 23  1  0
 13 24  1  0
 14 25  1  0
 16 26  1  0
M  CHG  2  10   1  12  -1
M  END
$$$$

     RDKit          3D

 26 27  0  0  0  0  0  0  0  0999 V2000
   -4.1405    2.3959    0.8066 C   0  0  0  0  0  0  0  0  0  0  0  0
   -2.8528    1.6970    0.5251 C   0  0  0  0  0  0  0  0  0  0  0  0
   -2.0256    2.0340   -0.5494 C   0  0  0  0  0  0  0  0  0  0  0  0
   -0.8573    1.3398   -0.7669 C   0  0  0  0  0  0  0  0  0  0  0  0
   -0.5088    0.3061    0.0959 C   0  0  0  0  0  0  0  0  0  0  0  0
    0.7338   -0.4833   -0.1000 C   0  0  0  0  0  0  0  0  0  0  0  0
    1.3665   -1.0740    0.9951 C   0  0  0  0  0  0  0  0  0  0  0  0
    2.5343   -1.7960    0.8381 C   0  0  0  0  0  0  0  0  0  0  0  0
    3.0737   -1.9411   -0.4335 C   0  0  0  0  0  0  0  0  0  0  0  0
    4.3079   -2.6780   -0.6078 N   0  0  0  0  0  0  0  0  0  0  0  0
    4.8314   -3.1381    0.3737 O   0  0  0  0  0  0  0  0  0  0  0  0
    4.7541   -2.7943   -1.7151 O   0  0  0  0  0  0  0  0  0  0  0  0
    2.4550   -1.3858   -1.5426 C   0  0  0  0  0  0  0  0  0  0  0  0
    1.2925   -0.6640   -1.3716 C   0  0  0  0  0  0  0  0  0  0  0  0
   -1.2733   -0.0161    1.1393 N   0  0  0  0  0  0  0  0  0  0  0  0
   -2.3996    0.6505    1.3423 C   0  0  0  0  0  0  0  0  0  0  0  0
   -4.1278    2.8411    1.7940 H   0  0  0  0  0  0  0  0  0  0  0  0
   -4.3349    3.1823    0.0820 H   0  0  0  0  0  0  0  0  0  0  0  0
   -4.9721    1.7010    0.7831 H   0  0  0  0  0  0  0  0  0  0  0  0
   -2.2990    2.8405   -1.2059 H   0  0  0  0  0  0  0  0  0  0  0  0
   -0.2033    1.6005   -1.5896 H   0  0  0  0  0  0  0  0  0  0  0  0
    0.9293   -0.9606    1.9765 H   0  0  0  0  0  0  0  0  0  0  0  0
    3.0247   -2.2415    1.6926 H   0  0  0  0  0  0  0  0  0  0  0  0
    2.8768   -1.5194   -2.5282 H   0  0  0  0  0  0  0  0  0  0  0  0
    0.7992   -0.2420   -2.2339 H   0  0  0  0  0  0  0  0  0  0  0  0
   -2.9842    0.3452    2.2003 H   0  0  0  0  0  0  0  0  0  0  0  0
  1  2  1  0
  2  3  2  0
  3  4  1  0
  4  5  2  0
  5  6  1  0
  6  7  2  0
  7  8  1  0
  8  9  2  0
  9 10  1  0
 10 11  2  0
 10 12  1  0
  9 13  1  0
 13 14  2  0
  5 15  1  0
 15 16  2  0
 16  2  1  0
 14  6  1  0
  1 17  1  0
  1 18  1  0
  1 19  1  0
  3 20  1  0
  4 21  1  0
  7 22  1  0
  8 23  1  0
 13 24  1  0
 14 25  1  0
 16 26  1  0
M  CHG  2  10   1  12  -1
M  END
$$$$

     RDKit          3D

 26 27  0  0  0  0  0  0  0  0999 V2000
    0.4661    2.8832   -3.8685 C   0  0  0  0  0  0  0  0  0  0  0  0
    0.3745    2.0428   -2.6393 C   0  0  0  0  0  0  0  0  0  0  0  0
    1.4857    1.7097   -1.8603 C   0  0  0  0  0  0  0  0  0  0  0  0
    1.3373    0.8946   -0.7610 C   0  0  0  0  0  0  0  0  0  0  0  0
    0.0739    0.4097   -0.4381 C   0  0  0  0  0  0  0  0  0  0  0  0
   -0.1382   -0.5038    0.7151 C   0  0  0  0  0  0  0  0  0  0  0  0
   -1.3736   -0.5293    1.3671 C   0  0  0  0  0  0  0  0  0  0  0  0
   -1.5965   -1.3814    2.4313 C   0  0  0  0  0  0  0  0  0  0  0  0
   -0.5788   -2.2347    2.8377 C   0  0  0  0  0  0  0  0  0  0  0  0
   -0.8093   -3.1522    3.9330 N   0  0  0  0  0  0  0  0  0  0  0  0
   -1.8825   -3.1202    4.4774 O   0  0  0  0  0  0  0  0  0  0  0  0
    0.0662   -3.9136    4.2355 O   0  0  0  0  0  0  0  0  0  0  0  0
    0.6568   -2.2303    2.2110 C   0  0  0  0  0  0  0  0  0  0  0  0
    0.8729   -1.3652    1.1599 C   0  0  0  0  0  0  0  0  0  0  0  0
   -1.0024    0.7384   -1.1527 N   0  0  0  0  0  0  0  0  0  0  0  0
   -0.8543    1.5159   -2.2145 C   0  0  0  0  0  0  0  0  0  0  0  0
    1.4259    3.3872   -3.9342 H   0  0  0  0  0  0  0  0  0  0  0  0
   -0.3197    3.6314   -3.8884 H   0  0  0  0  0  0  0  0  0  0  0  0
    0.3458    2.2733   -4.7561 H   0  0  0  0  0  0  0  0  0  0  0  0
    2.4564    2.0929   -2.1162 H   0  0  0  0  0  0  0  0  0  0  0  0
    2.1886    0.6411   -0.1410 H   0  0  0  0  0  0  0  0  0  0  0  0
   -2.1600    0.1303    1.0271 H   0  0  0  0  0  0  0  0  0  0  0  0
   -2.5490   -1.3892    2.9451 H   0  0  0  0  0  0  0  0  0  0  0  0
    1.4389   -2.8992    2.5377 H   0  0  0  0  0  0  0  0  0  0  0  0
    1.8303   -1.3697    0.6627 H   0  0  0  0  0  0  0  0  0  0  0  0
   -1.7552    1.7383   -2.7702 H   0  0  0  0  0  0  0  0  0  0  0  0
  1  2  1  0
  2  3  2  0
  3  4  1  0
  4  5  2  0
  5  6  1  0
  6  7  2  0
  7  8  1  0
  8  9  2  0
  9 10  1  0
 10 11  2  0
 10 12  1  0
  9 13  1  0
 13 14  2  0
  5 15  1  0
 15 16  2  0
 16  2  1  0
 14  6  1  0
  1 17  1  0
  1 18  1  0
  1 19  1  0
  3 20  1  0
  4 21  1  0
  7 22  1  0
  8 23  1  0
 13 24  1  0
 14 25  1  0
 16 26  1  0
M  CHG  2  10   1  12  -1
M  END
$$$$

     RDKit          3D

 26 27  0  0  0  0  0  0  0  0999 V2000
   -0.4781   -0.6890    4.7771 C   0  0  0  0  0  0  0  0  0  0  0  0
   -0.3303   -0.5209    3.3025 C   0  0  0  0  0  0  0  0  0  0  0  0
   -0.5207   -1.5725    2.4016 C   0  0  0  0  0  0  0  0  0  0  0  0
   -0.3934   -1.3522    1.0510 C   0  0  0  0  0  0  0  0  0  0  0  0
   -0.0625   -0.0792    0.5950 C   0  0  0  0  0  0  0  0  0  0  0  0
    0.1048    0.1990   -0.8542 C   0  0  0  0  0  0  0  0  0  0  0  0
    0.5786   -0.7876   -1.7290 C   0  0  0  0  0  0  0  0  0  0  0  0
    0.7296   -0.5326   -3.0736 C   0  0  0  0  0  0  0  0  0  0  0  0
    0.4058    0.7228   -3.5631 C   0  0  0  0  0  0  0  0  0  0  0  0
    0.5564    0.9985   -4.9762 N   0  0  0  0  0  0  0  0  0  0  0  0
    0.9767    0.1167   -5.6772 O   0  0  0  0  0  0  0  0  0  0  0  0
    0.2562    2.0874   -5.3836 O   0  0  0  0  0  0  0  0  0  0  0  0
   -0.0585    1.7278   -2.7224 C   0  0  0  0  0  0  0  0  0  0  0  0
   -0.1991    1.4621   -1.3722 C   0  0  0  0  0  0  0  0  0  0  0  0
    0.1110    0.9391    1.4333 N   0  0  0  0  0  0  0  0  0  0  0  0
   -0.0119    0.7218    2.7369 C   0  0  0  0  0  0  0  0  0  0  0  0
    0.2398   -0.0786    5.3140 H   0  0  0  0  0  0  0  0  0  0  0  0
   -1.4676   -0.3856    5.0939 H   0  0  0  0  0  0  0  0  0  0  0  0
   -0.3459   -1.7265    5.0703 H   0  0  0  0  0  0  0  0  0  0  0  0
   -0.7662   -2.5546    2.7675 H   0  0  0  0  0  0  0  0  0  0  0  0
   -0.5624   -2.1476    0.3375 H   0  0  0  0  0  0  0  0  0  0  0  0
    0.8377   -1.7623   -1.3383 H   0  0  0  0  0  0  0  0  0  0  0  0
    1.1012   -1.3016   -3.7391 H   0  0  0  0  0  0  0  0  0  0  0  0
   -0.3082    2.7002   -3.1242 H   0  0  0  0  0  0  0  0  0  0  0  0
   -0.5493    2.2382   -0.7048 H   0  0  0  0  0  0  0  0  0  0  0  0
    0.1561    1.5770    3.3774 H   0  0  0  0  0  0  0  0  0  0  0  0
  1  2  1  0
  2  3  2  0
  3  4  1  0
  4  5  2  0
  5  6  1  0
  6  7  2  0
  7  8  1  0
  8  9  2  0
  9 10  1  0
 10 11  2  0
 10 12  1  0
  9 13  1  0
 13 14  2  0
  5 15  1  0
 15 16  2  0
 16  2  1  0
 14  6  1  0
  1 17  1  0
  1 18  1  0
  1 19  1  0
  3 20  1  0
  4 21  1  0
  7 22  1  0
  8 23  1  0
 13 24  1  0
 14 25  1  0
 16 26  1  0
M  CHG  2  10   1  12  -1
M  END
$$$$

     RDKit          3D

 26 27  0  0  0  0  0  0  0  0999 V2000
   -2.1534    1.8761   -3.9259 C   0  0  0  0  0  0  0  0  0  0  0  0
   -1.4649    1.2669   -2.7509 C   0  0  0  0  0  0  0  0  0  0  0  0
   -0.2888    0.5224   -2.8706 C   0  0  0  0  0  0  0  0  0  0  0  0
    0.3138   -0.0011   -1.7496 C   0  0  0  0  0  0  0  0  0  0  0  0
   -0.2545    0.2252   -0.4979 C   0  0  0  0  0  0  0  0  0  0  0  0
    0.3564   -0.3046    0.7507 C   0  0  0  0  0  0  0  0  0  0  0  0
   -0.3986   -0.3657    1.9279 C   0  0  0  0  0  0  0  0  0  0  0  0
    0.1414   -0.8742    3.0926 C   0  0  0  0  0  0  0  0  0  0  0  0
    1.4567   -1.3207    3.0917 C   0  0  0  0  0  0  0  0  0  0  0  0
    2.0290   -1.8648    4.3043 N   0  0  0  0  0  0  0  0  0  0  0  0
    1.3438   -1.8798    5.2943 O   0  0  0  0  0  0  0  0  0  0  0  0
    3.1568   -2.2709    4.2752 O   0  0  0  0  0  0  0  0  0  0  0  0
    2.2331   -1.2567    1.9468 C   0  0  0  0  0  0  0  0  0  0  0  0
    1.6860   -0.7466    0.7902 C   0  0  0  0  0  0  0  0  0  0  0  0
   -1.3823    0.9265   -0.3661 N   0  0  0  0  0  0  0  0  0  0  0  0
   -1.9603    1.4249   -1.4476 C   0  0  0  0  0  0  0  0  0  0  0  0
   -1.8013    1.4418   -4.8574 H   0  0  0  0  0  0  0  0  0  0  0  0
   -3.2287    1.7381   -3.8687 H   0  0  0  0  0  0  0  0  0  0  0  0
   -1.9665    2.9419   -3.9638 H   0  0  0  0  0  0  0  0  0  0  0  0
    0.1449    0.3537   -3.8387 H   0  0  0  0  0  0  0  0  0  0  0  0
    1.2165   -0.5902   -1.8371 H   0  0  0  0  0  0  0  0  0  0  0  0
   -1.4176   -0.0083    1.9202 H   0  0  0  0  0  0  0  0  0  0  0  0
   -0.4457   -0.9294    4.0003 H   0  0  0  0  0  0  0  0  0  0  0  0
    3.2542   -1.6061    1.9566 H   0  0  0  0  0  0  0  0  0  0  0  0
    2.3026   -0.6814   -0.0917 H   0  0  0  0  0  0  0  0  0  0  0  0
   -2.8725    1.9828   -1.2850 H   0  0  0  0  0  0  0  0  0  0  0  0
  1  2  1  0
  2  3  2  0
  3  4  1  0
  4  5  2  0
  5  6  1  0
  6  7  2  0
  7  8  1  0
  8  9  2  0
  9 10  1  0
 10 11  2  0
 10 12  1  0
  9 13  1  0
 13 14  2  0
  5 15  1  0
 15 16  2  0
 16  2  1  0
 14  6  1  0
  1 17  1  0
  1 18  1  0
  1 19  1  0
  3 20  1  0
  4 21  1  0
  7 22  1  0
  8 23  1  0
 13 24  1  0
 14 25  1  0
 16 26  1  0
M  CHG  2  10   1  12  -1
M  END
$$$$

     RDKit          3D

 26 27  0  0  0  0  0  0  0  0999 V2000
   -4.7129   -0.6930   -0.9217 C   0  0  0  0  0  0  0  0  0  0  0  0
   -3.2673   -0.5219   -0.5990 C   0  0  0  0  0  0  0  0  0  0  0  0
   -2.6948   -0.9988    0.5814 C   0  0  0  0  0  0  0  0  0  0  0  0
   -1.3585   -0.7906    0.8344 C   0  0  0  0  0  0  0  0  0  0  0  0
   -0.5856   -0.1088   -0.1004 C   0  0  0  0  0  0  0  0  0  0  0  0
    0.8612    0.1560    0.1243 C   0  0  0  0  0  0  0  0  0  0  0  0
    1.6804    0.4936   -0.9577 C   0  0  0  0  0  0  0  0  0  0  0  0
    3.0289    0.7383   -0.7814 C   0  0  0  0  0  0  0  0  0  0  0  0
    3.5720    0.6490    0.4943 C   0  0  0  0  0  0  0  0  0  0  0  0
    4.9837    0.9009    0.6904 N   0  0  0  0  0  0  0  0  0  0  0  0
    5.6459    1.1747   -0.2782 O   0  0  0  0  0  0  0  0  0  0  0  0
    5.4347    0.8160    1.7994 O   0  0  0  0  0  0  0  0  0  0  0  0
    2.7843    0.3243    1.5876 C   0  0  0  0  0  0  0  0  0  0  0  0
    1.4387    0.0864    1.4010 C   0  0  0  0  0  0  0  0  0  0  0  0
   -1.1100    0.3331   -1.2464 N   0  0  0  0  0  0  0  0  0  0  0  0
   -2.3984    0.1388   -1.4796 C   0  0  0  0  0  0  0  0  0  0  0  0
   -4.8367   -1.2761   -1.8251 H   0  0  0  0  0  0  0  0  0  0  0  0
   -5.2420   -1.1978   -0.1168 H   0  0  0  0  0  0  0  0  0  0  0  0
   -5.1856    0.2675   -1.0908 H   0  0  0  0  0  0  0  0  0  0  0  0
   -3.2981   -1.5296    1.2939 H   0  0  0  0  0  0  0  0  0  0  0  0
   -0.9066   -1.1587    1.7423 H   0  0  0  0  0  0  0  0  0  0  0  0
    1.2442    0.5629   -1.9438 H   0  0  0  0  0  0  0  0  0  0  0  0
    3.6577    0.9958   -1.6239 H   0  0  0  0  0  0  0  0  0  0  0  0
    3.2175    0.2581    2.5737 H   0  0  0  0  0  0  0  0  0  0  0  0
    0.8261   -0.1466    2.2580 H   0  0  0  0  0  0  0  0  0  0  0  0
   -2.7787    0.5264   -2.4158 H   0  0  0  0  0  0  0  0  0  0  0  0
  1  2  1  0
  2  3  2  0
  3  4  1  0
  4  5  2  0
  5  6  1  0
  6  7  2  0
  7  8  1  0
  8  9  2  0
  9 10  1  0
 10 11  2  0
 10 12  1  0
  9 13  1  0
 13 14  2  0
  5 15  1  0
 15 16  2  0
 16  2  1  0
 14  6  1  0
  1 17  1  0
  1 18  1  0
  1 19  1  0
  3 20  1  0
  4 21  1  0
  7 22  1  0
  8 23  1  0
 13 24  1  0
 14 25  1  0
 16 26  1  0
M  CHG  2  10   1  12  -1
M  END
$$$$

     RDKit          3D

 26 27  0  0  0  0  0  0  0  0999 V2000
    2.2370    3.2038   -2.8767 C   0  0  0  0  0  0  0  0  0  0  0  0
    1.5076    2.2508   -1.9915 C   0  0  0  0  0  0  0  0  0  0  0  0
    0.3325    2.5923   -1.3198 C   0  0  0  0  0  0  0  0  0  0  0  0
   -0.2919    1.6715   -0.5109 C   0  0  0  0  0  0  0  0  0  0  0  0
    0.2585    0.4009   -0.3693 C   0  0  0  0  0  0  0  0  0  0  0  0
   -0.3653   -0.6253    0.5082 C   0  0  0  0  0  0  0  0  0  0  0  0
   -0.0792   -1.9803    0.3120 C   0  0  0  0  0  0  0  0  0  0  0  0
   -0.6511   -2.9505    1.1130 C   0  0  0  0  0  0  0  0  0  0  0  0
   -1.5152   -2.5649    2.1300 C   0  0  0  0  0  0  0  0  0  0  0  0
   -2.1281   -3.5712    2.9702 N   0  0  0  0  0  0  0  0  0  0  0  0
   -1.8939   -4.7280    2.7281 O   0  0  0  0  0  0  0  0  0  0  0  0
   -2.8468   -3.2112    3.8608 O   0  0  0  0  0  0  0  0  0  0  0  0
   -1.8033   -1.2300    2.3601 C   0  0  0  0  0  0  0  0  0  0  0  0
   -1.2316   -0.2696    1.5528 C   0  0  0  0  0  0  0  0  0  0  0  0
    1.3710    0.0506   -1.0156 N   0  0  0  0  0  0  0  0  0  0  0  0
    1.9712    0.9426   -1.7908 C   0  0  0  0  0  0  0  0  0  0  0  0
    2.2188    2.8633   -3.9032 H   0  0  0  0  0  0  0  0  0  0  0  0
    1.7963    4.1967   -2.8424 H   0  0  0  0  0  0  0  0  0  0  0  0
    3.2777    3.2826   -2.5840 H   0  0  0  0  0  0  0  0  0  0  0  0
   -0.0831    3.5764   -1.4321 H   0  0  0  0  0  0  0  0  0  0  0  0
   -1.2086    1.9231    0.0024 H   0  0  0  0  0  0  0  0  0  0  0  0
    0.6021   -2.2661   -0.4783 H   0  0  0  0  0  0  0  0  0  0  0  0
   -0.4330   -3.9986    0.9574 H   0  0  0  0  0  0  0  0  0  0  0  0
   -2.4673   -0.9424    3.1610 H   0  0  0  0  0  0  0  0  0  0  0  0
   -1.4519    0.7693    1.7411 H   0  0  0  0  0  0  0  0  0  0  0  0
    2.8775    0.6142   -2.2824 H   0  0  0  0  0  0  0  0  0  0  0  0
  1  2  1  0
  2  3  2  0
  3  4  1  0
  4  5  2  0
  5  6  1  0
  6  7  2  0
  7  8  1  0
  8  9  2  0
  9 10  1  0
 10 11  2  0
 10 12  1  0
  9 13  1  0
 13 14  2  0
  5 15  1  0
 15 16  2  0
 16  2  1  0
 14  6  1  0
  1 17  1  0
  1 18  1  0
  1 19  1  0
  3 20  1  0
  4 21  1  0
  7 22  1  0
  8 23  1  0
 13 24  1  0
 14 25  1  0
 16 26  1  0
M  CHG  2  10   1  12  -1
M  END
$$$$

     RDKit          3D

 26 27  0  0  0  0  0  0  0  0999 V2000
   -3.1563   -3.5905   -0.8324 C   0  0  0  0  0  0  0  0  0  0  0  0
   -2.2136   -2.4728   -0.5360 C   0  0  0  0  0  0  0  0  0  0  0  0
   -2.4973   -1.4678    0.3909 C   0  0  0  0  0  0  0  0  0  0  0  0
   -1.5877   -0.4596    0.6155 C   0  0  0  0  0  0  0  0  0  0  0  0
   -0.3930   -0.4467   -0.0964 C   0  0  0  0  0  0  0  0  0  0  0  0
    0.6114    0.6313    0.0980 C   0  0  0  0  0  0  0  0  0  0  0  0
    1.9570    0.3913   -0.1894 C   0  0  0  0  0  0  0  0  0  0  0  0
    2.9087    1.3737    0.0021 C   0  0  0  0  0  0  0  0  0  0  0  0
    2.5123    2.6205    0.4729 C   0  0  0  0  0  0  0  0  0  0  0  0
    3.5041    3.6535    0.6830 N   0  0  0  0  0  0  0  0  0  0  0  0
    4.6548    3.3812    0.4507 O   0  0  0  0  0  0  0  0  0  0  0  0
    3.1420    4.7237    1.0864 O   0  0  0  0  0  0  0  0  0  0  0  0
    1.1824    2.8940    0.7476 C   0  0  0  0  0  0  0  0  0  0  0  0
    0.2425    1.9037    0.5596 C   0  0  0  0  0  0  0  0  0  0  0  0
   -0.0965   -1.4040   -0.9759 N   0  0  0  0  0  0  0  0  0  0  0  0
   -0.9729   -2.3763   -1.1834 C   0  0  0  0  0  0  0  0  0  0  0  0
   -3.3975   -3.6196   -1.8893 H   0  0  0  0  0  0  0  0  0  0  0  0
   -4.0816   -3.4878   -0.2715 H   0  0  0  0  0  0  0  0  0  0  0  0
   -2.7119   -4.5446   -0.5801 H   0  0  0  0  0  0  0  0  0  0  0  0
   -3.4276   -1.4819    0.9284 H   0  0  0  0  0  0  0  0  0  0  0  0
   -1.7830    0.3084    1.3502 H   0  0  0  0  0  0  0  0  0  0  0  0
    2.2500   -0.5791   -0.5696 H   0  0  0  0  0  0  0  0  0  0  0  0
    3.9521    1.1828   -0.2115 H   0  0  0  0  0  0  0  0  0  0  0  0
    0.8831    3.8738    1.0961 H   0  0  0  0  0  0  0  0  0  0  0  0
   -0.7946    2.1230    0.7597 H   0  0  0  0  0  0  0  0  0  0  0  0
   -0.6870   -3.1304   -1.9056 H   0  0  0  0  0  0  0  0  0  0  0  0
  1  2  1  0
  2  3  2  0
  3  4  1  0
  4  5  2  0
  5  6  1  0
  6  7  2  0
  7  8  1  0
  8  9  2  0
  9 10  1  0
 10 11  2  0
 10 12  1  0
  9 13  1  0
 13 14  2  0
  5 15  1  0
 15 16  2  0
 16  2  1  0
 14  6  1  0
  1 17  1  0
  1 18  1  0
  1 19  1  0
  3 20  1  0
  4 21  1  0
  7 22  1  0
  8 23  1  0
 13 24  1  0
 14 25  1  0
 16 26  1  0
M  CHG  2  10   1  12  -1
M  END
$$$$
