
     RDKit          3D

 28 29  0  0  0  0  0  0  0  0999 V2000
   -1.2966   -5.2713   -0.1200 C   0  0  0  0  0  0  0  0  0  0  0  0
   -1.4397   -4.2473   -1.0947 O   0  0  0  0  0  0  0  0  0  0  0  0
   -1.0242   -3.0035   -0.7572 C   0  0  0  0  0  0  0  0  0  0  0  0
   -1.1638   -2.0112   -1.7327 C   0  0  0  0  0  0  0  0  0  0  0  0
   -0.7606   -0.7204   -1.4751 C   0  0  0  0  0  0  0  0  0  0  0  0
   -0.2018   -0.3679   -0.2452 C   0  0  0  0  0  0  0  0  0  0  0  0
    0.2397    1.0320   -0.0002 C   0  0  0  0  0  0  0  0  0  0  0  0
    0.9980    1.3912    1.1138 C   0  0  0  0  0  0  0  0  0  0  0  0
    1.3712    2.7031    1.2947 C   0  0  0  0  0  0  0  0  0  0  0  0
    1.0024    3.6705    0.3586 C   0  0  0  0  0  0  0  0  0  0  0  0
    1.3771    5.1028    0.5159 C   0  0  0  0  0  0  0  0  0  0  0  0
    0.2549    3.2113   -0.7242 C   0  0  0  0  0  0  0  0  0  0  0  0
   -0.1196    1.9466   -0.9072 N   0  0  0  0  0  0  0  0  0  0  0  0
   -0.0815   -1.3644    0.7232 C   0  0  0  0  0  0  0  0  0  0  0  0
   -0.4795   -2.6649    0.4780 C   0  0  0  0  0  0  0  0  0  0  0  0
   -1.6620   -6.1858   -0.5798 H   0  0  0  0  0  0  0  0  0  0  0  0
   -0.2538   -5.4067    0.1586 H   0  0  0  0  0  0  0  0  0  0  0  0
   -1.8845   -5.0506    0.7651 H   0  0  0  0  0  0  0  0  0  0  0  0
   -1.5948   -2.2751   -2.6896 H   0  0  0  0  0  0  0  0  0  0  0  0
   -0.8775    0.0424   -2.2319 H   0  0  0  0  0  0  0  0  0  0  0  0
    1.3025    0.6495    1.8334 H   0  0  0  0  0  0  0  0  0  0  0  0
    1.9554    2.9869    2.1548 H   0  0  0  0  0  0  0  0  0  0  0  0
    2.4188    5.2072    0.8032 H   0  0  0  0  0  0  0  0  0  0  0  0
    1.2220    5.6644   -0.4037 H   0  0  0  0  0  0  0  0  0  0  0  0
    0.7886    5.5759    1.2971 H   0  0  0  0  0  0  0  0  0  0  0  0
   -0.0577    3.9063   -1.4894 H   0  0  0  0  0  0  0  0  0  0  0  0
    0.3269   -1.1245    1.6926 H   0  0  0  0  0  0  0  0  0  0  0  0
   -0.3598   -3.3965    1.2622 H   0  0  0  0  0  0  0  0  0  0  0  0
  1  2  1  0
  2  3  1  0
  3  4  2  0
  4  5  1  0
  5  6  2  0
  6  7  1  0
  7  8  2  0
  8  9  1  0
  9 10  2  0
 10 11  1  0
 10 12  1  0
 12 13  2  0
  6 14  1  0
 14 15  2  0
 15  3  1  0
 13  7  1  0
  1 16  1  0
  1 17  1  0
  1 18  1  0
  4 19  1  0
  5 20  1  0
  8 21  1  0
  9 22  1  0
 11 23  1  0
 11 24  1  0
 11 25  1  0
 12 26  1  0
 14 27  1  0
 15 28  1  0
M  END
$$$$

     RDKit          3D

 28 29  0  0  0  0  0  0  0  0999 V2000
    1.0670   -4.8639    2.1220 C   0  0  0  0  0  0  0  0  0  0  0  0
    0.0285   -4.4419    1.2458 O   0  0  0  0  0  0  0  0  0  0  0  0
    0.0263   -3.1411    0.8702 C   0  0  0  0  0  0  0  0  0  0  0  0
   -1.0091   -2.7340    0.0203 C   0  0  0  0  0  0  0  0  0  0  0  0
   -1.0838   -1.4273   -0.4091 C   0  0  0  0  0  0  0  0  0  0  0  0
   -0.1437   -0.4834   -0.0037 C   0  0  0  0  0  0  0  0  0  0  0  0
   -0.2443    0.9276   -0.4557 C   0  0  0  0  0  0  0  0  0  0  0  0
    0.2576    1.9747    0.3161 C   0  0  0  0  0  0  0  0  0  0  0  0
    0.1607    3.2670   -0.1417 C   0  0  0  0  0  0  0  0  0  0  0  0
   -0.4397    3.5284   -1.3758 C   0  0  0  0  0  0  0  0  0  0  0  0
   -0.5657    4.9111   -1.9137 C   0  0  0  0  0  0  0  0  0  0  0  0
   -0.9217    2.4144   -2.0657 C   0  0  0  0  0  0  0  0  0  0  0  0
   -0.8357    1.1582   -1.6284 N   0  0  0  0  0  0  0  0  0  0  0  0
    0.8877   -0.9015    0.8373 C   0  0  0  0  0  0  0  0  0  0  0  0
    0.9783   -2.2086    1.2770 C   0  0  0  0  0  0  0  0  0  0  0  0
    1.0335   -4.3154    3.0610 H   0  0  0  0  0  0  0  0  0  0  0  0
    2.0448   -4.7371    1.6604 H   0  0  0  0  0  0  0  0  0  0  0  0
    0.9012   -5.9207    2.3141 H   0  0  0  0  0  0  0  0  0  0  0  0
   -1.7484   -3.4592   -0.2930 H   0  0  0  0  0  0  0  0  0  0  0  0
   -1.8807   -1.1188   -1.0758 H   0  0  0  0  0  0  0  0  0  0  0  0
    0.7034    1.7692    1.2801 H   0  0  0  0  0  0  0  0  0  0  0  0
    0.5477    4.0852    0.4496 H   0  0  0  0  0  0  0  0  0  0  0  0
   -1.3191    5.4742   -1.3678 H   0  0  0  0  0  0  0  0  0  0  0  0
    0.3673    5.4592   -1.8123 H   0  0  0  0  0  0  0  0  0  0  0  0
   -0.8444    4.9109   -2.9658 H   0  0  0  0  0  0  0  0  0  0  0  0
   -1.4016    2.5463   -3.0239 H   0  0  0  0  0  0  0  0  0  0  0  0
    1.6404   -0.1924    1.1462 H   0  0  0  0  0  0  0  0  0  0  0  0
    1.7934   -2.4811    1.9320 H   0  0  0  0  0  0  0  0  0  0  0  0
  1  2  1  0
  2  3  1  0
  3  4  2  0
  4  5  1  0
  5  6  2  0
  6  7  1  0
  7  8  2  0
  8  9  1  0
  9 10  2  0
 10 11  1  0
 10 12  1  0
 12 13  2  0
  6 14  1  0
 14 15  2  0
 15  3  1  0
 13  7  1  0
  1 16  1  0
  1 17  1  0
  1 18  1  0
  4 19  1  0
  5 20  1  0
  8 21  1  0
  9 22  1  0
 11 23  1  0
 11 24  1  0
 11 25  1  0
 12 26  1  0
 14 27  1  0
 15 28  1  0
M  END
$$$$

     RDKit          3D

 28 29  0  0  0  0  0  0  0  0999 V2000
   -1.5972   -5.0623    1.1224 C   0  0  0  0  0  0  0  0  0  0  0  0
   -0.7011   -4.5604    0.1382 O   0  0  0  0  0  0  0  0  0  0  0  0
   -0.5084   -3.2207    0.1000 C   0  0  0  0  0  0  0  0  0  0  0  0
   -1.1091   -2.3084    0.9698 C   0  0  0  0  0  0  0  0  0  0  0  0
   -0.8377   -0.9610    0.8500 C   0  0  0  0  0  0  0  0  0  0  0  0
    0.0299   -0.4747   -0.1290 C   0  0  0  0  0  0  0  0  0  0  0  0
    0.3030    0.9863   -0.2203 C   0  0  0  0  0  0  0  0  0  0  0  0
    0.9765    1.5480   -1.2999 C   0  0  0  0  0  0  0  0  0  0  0  0
    1.2182    2.9024   -1.3250 C   0  0  0  0  0  0  0  0  0  0  0  0
    0.7766    3.7131   -0.2794 C   0  0  0  0  0  0  0  0  0  0  0  0
    0.9993    5.1843   -0.2518 C   0  0  0  0  0  0  0  0  0  0  0  0
    0.0985    3.0584    0.7555 C   0  0  0  0  0  0  0  0  0  0  0  0
   -0.1359    1.7532    0.7915 N   0  0  0  0  0  0  0  0  0  0  0  0
    0.6215   -1.4007   -0.9918 C   0  0  0  0  0  0  0  0  0  0  0  0
    0.3605   -2.7441   -0.8836 C   0  0  0  0  0  0  0  0  0  0  0  0
   -1.6248   -6.1410    0.9904 H   0  0  0  0  0  0  0  0  0  0  0  0
   -1.2500   -4.8367    2.1275 H   0  0  0  0  0  0  0  0  0  0  0  0
   -2.5956   -4.6539    0.9845 H   0  0  0  0  0  0  0  0  0  0  0  0
   -1.7904   -2.6428    1.7407 H   0  0  0  0  0  0  0  0  0  0  0  0
   -1.3042   -0.2568    1.5275 H   0  0  0  0  0  0  0  0  0  0  0  0
    1.3092    0.9257   -2.1168 H   0  0  0  0  0  0  0  0  0  0  0  0
    1.7433    3.3384   -2.1563 H   0  0  0  0  0  0  0  0  0  0  0  0
    1.5265    5.4841    0.6505 H   0  0  0  0  0  0  0  0  0  0  0  0
    1.5808    5.5202   -1.1065 H   0  0  0  0  0  0  0  0  0  0  0  0
    0.0548    5.7261   -0.2604 H   0  0  0  0  0  0  0  0  0  0  0  0
   -0.2691    3.6324    1.5992 H   0  0  0  0  0  0  0  0  0  0  0  0
    1.2984   -1.0665   -1.7620 H   0  0  0  0  0  0  0  0  0  0  0  0
    0.8266   -3.4429   -1.5648 H   0  0  0  0  0  0  0  0  0  0  0  0
  1  2  1  0
  2  3  1  0
  3  4  2  0
  4  5  1  0
  5  6  2  0
  6  7  1  0
  7  8  2  0
  8  9  1  0
  9 10  2  0
 10 11  1  0
 10 12  1  0
 12 13  2  0
  6 14  1  0
 14 15  2  0
 15  3  1  0
 13  7  1  0
  1 16  1  0
  1 17  1  0
  1 18  1  0
  4 19  1  0
  5 20  1  0
  8 21  1  0
  9 22  1  0
 11 23  1  0
 11 24  1  0
 11 25  1  0
 12 26  1  0
 14 27  1  0
 15 28  1  0
M  END
$$$$

     RDKit          3D

 28 29  0  0  0  0  0  0  0  0999 V2000
    3.2062   -1.8583   -3.9660 C   0  0  0  0  0  0  0  0  0  0  0  0
    3.5067   -1.4200   -2.6469 O   0  0  0  0  0  0  0  0  0  0  0  0
    2.4714   -1.0079   -1.8775 C   0  0  0  0  0  0  0  0  0  0  0  0
    1.1436   -0.9465   -2.3024 C   0  0  0  0  0  0  0  0  0  0  0  0
    0.1648   -0.5083   -1.4347 C   0  0  0  0  0  0  0  0  0  0  0  0
    0.4624   -0.1228   -0.1255 C   0  0  0  0  0  0  0  0  0  0  0  0
   -0.6262    0.3479    0.7760 C   0  0  0  0  0  0  0  0  0  0  0  0
   -0.3886    0.7293    2.0920 C   0  0  0  0  0  0  0  0  0  0  0  0
   -1.4299    1.1718    2.8758 C   0  0  0  0  0  0  0  0  0  0  0  0
   -2.7216    1.2316    2.3561 C   0  0  0  0  0  0  0  0  0  0  0  0
   -3.8872    1.6975    3.1565 C   0  0  0  0  0  0  0  0  0  0  0  0
   -2.8623    0.8237    1.0248 C   0  0  0  0  0  0  0  0  0  0  0  0
   -1.8657    0.3972    0.2584 N   0  0  0  0  0  0  0  0  0  0  0  0
    1.7966   -0.1924    0.2829 C   0  0  0  0  0  0  0  0  0  0  0  0
    2.7807   -0.6199   -0.5722 C   0  0  0  0  0  0  0  0  0  0  0  0
    2.7693   -1.0607   -4.5553 H   0  0  0  0  0  0  0  0  0  0  0  0
    2.5269   -2.7097   -3.9502 H   0  0  0  0  0  0  0  0  0  0  0  0
    4.1496   -2.1641   -4.4110 H   0  0  0  0  0  0  0  0  0  0  0  0
    0.8640   -1.2320   -3.3089 H   0  0  0  0  0  0  0  0  0  0  0  0
   -0.8599   -0.4611   -1.7725 H   0  0  0  0  0  0  0  0  0  0  0  0
    0.6060    0.6781    2.5044 H   0  0  0  0  0  0  0  0  0  0  0  0
   -1.2468    1.4751    3.8916 H   0  0  0  0  0  0  0  0  0  0  0  0
   -3.5934    1.9861    4.1623 H   0  0  0  0  0  0  0  0  0  0  0  0
   -4.6411    0.9200    3.2402 H   0  0  0  0  0  0  0  0  0  0  0  0
   -4.3659    2.5578    2.6918 H   0  0  0  0  0  0  0  0  0  0  0  0
   -3.8425    0.8478    0.5622 H   0  0  0  0  0  0  0  0  0  0  0  0
    2.0741    0.0948    1.2863 H   0  0  0  0  0  0  0  0  0  0  0  0
    3.8088   -0.6548   -0.2384 H   0  0  0  0  0  0  0  0  0  0  0  0
  1  2  1  0
  2  3  1  0
  3  4  2  0
  4  5  1  0
  5  6  2  0
  6  7  1  0
  7  8  2  0
  8  9  1  0
  9 10  2  0
 10 11  1  0
 10 12  1  0
 12 13  2  0
  6 14  1  0
 14 15  2  0
 15  3  1  0
 13  7  1  0
  1 16  1  0
  1 17  1  0
  1 18  1  0
  4 19  1  0
  5 20  1  0
  8 21  1  0
  9 22  1  0
 11 23  1  0
 11 24  1  0
 11 25  1  0
 12 26  1  0
 14 27  1  0
 15 28  1  0
M  END
$$$$

     RDKit          3D

 28 29  0  0  0  0  0  0  0  0999 V2000
    4.3098    2.9894    1.3678 C   0  0  0  0  0  0  0  0  0  0  0  0
    3.6899    2.7654    0.1078 O   0  0  0  0  0  0  0  0  0  0  0  0
    2.6020    1.9568    0.0850 C   0  0  0  0  0  0  0  0  0  0  0  0
    1.9988    1.7570   -1.1609 C   0  0  0  0  0  0  0  0  0  0  0  0
    0.8855    0.9542   -1.2766 C   0  0  0  0  0  0  0  0  0  0  0  0
    0.3444    0.3144   -0.1657 C   0  0  0  0  0  0  0  0  0  0  0  0
   -0.8482   -0.5581   -0.3078 C   0  0  0  0  0  0  0  0  0  0  0  0
   -1.0795   -1.6246    0.5588 C   0  0  0  0  0  0  0  0  0  0  0  0
   -2.2018   -2.4032    0.3976 C   0  0  0  0  0  0  0  0  0  0  0  0
   -3.1022   -2.1260   -0.6345 C   0  0  0  0  0  0  0  0  0  0  0  0
   -4.3285   -2.9435   -0.8482 C   0  0  0  0  0  0  0  0  0  0  0  0
   -2.7752   -1.0445   -1.4526 C   0  0  0  0  0  0  0  0  0  0  0  0
   -1.6896   -0.2843   -1.3050 N   0  0  0  0  0  0  0  0  0  0  0  0
    0.9518    0.5220    1.0730 C   0  0  0  0  0  0  0  0  0  0  0  0
    2.0659    1.3305    1.2075 C   0  0  0  0  0  0  0  0  0  0  0  0
    4.6730    2.0592    1.7960 H   0  0  0  0  0  0  0  0  0  0  0  0
    3.6224    3.4655    2.0643 H   0  0  0  0  0  0  0  0  0  0  0  0
    5.1496    3.6569    1.1862 H   0  0  0  0  0  0  0  0  0  0  0  0
    2.4194    2.2398   -2.0322 H   0  0  0  0  0  0  0  0  0  0  0  0
    0.4158    0.8189   -2.2423 H   0  0  0  0  0  0  0  0  0  0  0  0
   -0.3679   -1.8482    1.3417 H   0  0  0  0  0  0  0  0  0  0  0  0
   -2.3928   -3.2324    1.0634 H   0  0  0  0  0  0  0  0  0  0  0  0
   -4.9484   -2.9616    0.0446 H   0  0  0  0  0  0  0  0  0  0  0  0
   -4.0735   -3.9773   -1.0666 H   0  0  0  0  0  0  0  0  0  0  0  0
   -4.9339   -2.5610   -1.6683 H   0  0  0  0  0  0  0  0  0  0  0  0
   -3.4239   -0.7772   -2.2730 H   0  0  0  0  0  0  0  0  0  0  0  0
    0.5368    0.0538    1.9518 H   0  0  0  0  0  0  0  0  0  0  0  0
    2.5004    1.4581    2.1880 H   0  0  0  0  0  0  0  0  0  0  0  0
  1  2  1  0
  2  3  1  0
  3  4  2  0
  4  5  1  0
  5  6  2  0
  6  7  1  0
  7  8  2  0
  8  9  1  0
  9 10  2  0
 10 11  1  0
 10 12  1  0
 12 13  2  0
  6 14  1  0
 14 15  2  0
 15  3  1  0
 13  7  1  0
  1 16  1  0
  1 17  1  0
  1 18  1  0
  4 19  1  0
  5 20  1  0
  8 21  1  0
  9 22  1  0
 11 23  1  0
 11 24  1  0
 11 25  1  0
 12 26  1  0
 14 27  1  0
 15 28  1  0
M  END
$$$$

     RDKit          3D

 28 29  0  0  0  0  0  0  0  0999 V2000
    1.5963   -1.2590    5.0307 C   0  0  0  0  0  0  0  0  0  0  0  0
    2.2524   -0.5466    3.9907 O   0  0  0  0  0  0  0  0  0  0  0  0
    1.5867   -0.3988    2.8199 C   0  0  0  0  0  0  0  0  0  0  0  0
    0.3108   -0.9049    2.5645 C   0  0  0  0  0  0  0  0  0  0  0  0
   -0.2791   -0.6955    1.3344 C   0  0  0  0  0  0  0  0  0  0  0  0
    0.3667    0.0228    0.3286 C   0  0  0  0  0  0  0  0  0  0  0  0
   -0.3096    0.2384   -0.9783 C   0  0  0  0  0  0  0  0  0  0  0  0
    0.1125    1.2091   -1.8804 C   0  0  0  0  0  0  0  0  0  0  0  0
   -0.5446    1.3584   -3.0810 C   0  0  0  0  0  0  0  0  0  0  0  0
   -1.6352    0.5444   -3.3895 C   0  0  0  0  0  0  0  0  0  0  0  0
   -2.3875    0.6688   -4.6696 C   0  0  0  0  0  0  0  0  0  0  0  0
   -1.9907   -0.3945   -2.4140 C   0  0  0  0  0  0  0  0  0  0  0  0
   -1.3628   -0.5469   -1.2534 N   0  0  0  0  0  0  0  0  0  0  0  0
    1.6472    0.5132    0.5957 C   0  0  0  0  0  0  0  0  0  0  0  0
    2.2456    0.3117    1.8149 C   0  0  0  0  0  0  0  0  0  0  0  0
    1.3763   -2.2790    4.7307 H   0  0  0  0  0  0  0  0  0  0  0  0
    2.2796   -1.2718    5.8768 H   0  0  0  0  0  0  0  0  0  0  0  0
    0.6750   -0.7637    5.3288 H   0  0  0  0  0  0  0  0  0  0  0  0
   -0.2283   -1.4640    3.3172 H   0  0  0  0  0  0  0  0  0  0  0  0
   -1.2650   -1.0966    1.1357 H   0  0  0  0  0  0  0  0  0  0  0  0
    0.9455    1.8497   -1.6374 H   0  0  0  0  0  0  0  0  0  0  0  0
   -0.2215    2.1058   -3.7857 H   0  0  0  0  0  0  0  0  0  0  0  0
   -1.8087    1.2081   -5.4193 H   0  0  0  0  0  0  0  0  0  0  0  0
   -3.3174    1.2092   -4.5270 H   0  0  0  0  0  0  0  0  0  0  0  0
   -2.6408   -0.3078   -5.0778 H   0  0  0  0  0  0  0  0  0  0  0  0
   -2.8271   -1.0614   -2.5925 H   0  0  0  0  0  0  0  0  0  0  0  0
    2.1862    1.0516   -0.1670 H   0  0  0  0  0  0  0  0  0  0  0  0
    3.2373    0.6993    2.0043 H   0  0  0  0  0  0  0  0  0  0  0  0
  1  2  1  0
  2  3  1  0
  3  4  2  0
  4  5  1  0
  5  6  2  0
  6  7  1  0
  7  8  2  0
  8  9  1  0
  9 10  2  0
 10 11  1  0
 10 12  1  0
 12 13  2  0
  6 14  1  0
 14 15  2  0
 15  3  1  0
 13  7  1  0
  1 16  1  0
  1 17  1  0
  1 18  1  0
  4 19  1  0
  5 20  1  0
  8 21  1  0
  9 22  1  0
 11 23  1  0
 11 24  1  0
 11 25  1  0
 12 26  1  0
 14 27  1  0
 15 28  1  0
M  END
$$$$

     RDKit          3D

 28 29  0  0  0  0  0  0  0  0999 V2000
    2.7533   -4.5049   -1.2479 C   0  0  0  0  0  0  0  0  0  0  0  0
    2.5913   -3.8157   -0.0130 O   0  0  0  0  0  0  0  0  0  0  0  0
    1.8271   -2.6979   -0.0169 C   0  0  0  0  0  0  0  0  0  0  0  0
    1.6755   -2.0399    1.2088 C   0  0  0  0  0  0  0  0  0  0  0  0
    0.9117   -0.8980    1.2955 C   0  0  0  0  0  0  0  0  0  0  0  0
    0.2863   -0.3626    0.1723 C   0  0  0  0  0  0  0  0  0  0  0  0
   -0.5318    0.8722    0.2850 C   0  0  0  0  0  0  0  0  0  0  0  0
   -0.7632    1.7011   -0.8100 C   0  0  0  0  0  0  0  0  0  0  0  0
   -1.5352    2.8293   -0.6605 C   0  0  0  0  0  0  0  0  0  0  0  0
   -2.0835    3.1436    0.5863 C   0  0  0  0  0  0  0  0  0  0  0  0
   -2.9199    4.3572    0.7938 C   0  0  0  0  0  0  0  0  0  0  0  0
   -1.7892    2.2545    1.6196 C   0  0  0  0  0  0  0  0  0  0  0  0
   -1.0390    1.1617    1.4867 N   0  0  0  0  0  0  0  0  0  0  0  0
    0.4456   -1.0244   -1.0451 C   0  0  0  0  0  0  0  0  0  0  0  0
    1.1998   -2.1790   -1.1470 C   0  0  0  0  0  0  0  0  0  0  0  0
    3.3928   -5.3594   -1.0423 H   0  0  0  0  0  0  0  0  0  0  0  0
    1.7975   -4.8593   -1.6258 H   0  0  0  0  0  0  0  0  0  0  0  0
    3.2288   -3.8690   -1.9900 H   0  0  0  0  0  0  0  0  0  0  0  0
    2.1645   -2.4415    2.0856 H   0  0  0  0  0  0  0  0  0  0  0  0
    0.7858   -0.4010    2.2484 H   0  0  0  0  0  0  0  0  0  0  0  0
   -0.3286    1.4685   -1.7724 H   0  0  0  0  0  0  0  0  0  0  0  0
   -1.7159    3.4804   -1.5026 H   0  0  0  0  0  0  0  0  0  0  0  0
   -3.7169    4.4145    0.0573 H   0  0  0  0  0  0  0  0  0  0  0  0
   -3.3723    4.3730    1.7844 H   0  0  0  0  0  0  0  0  0  0  0  0
   -2.3298    5.2617    0.6781 H   0  0  0  0  0  0  0  0  0  0  0  0
   -2.1825    2.4332    2.6098 H   0  0  0  0  0  0  0  0  0  0  0  0
   -0.0367   -0.6353   -1.9286 H   0  0  0  0  0  0  0  0  0  0  0  0
    1.2845   -2.6630   -2.1098 H   0  0  0  0  0  0  0  0  0  0  0  0
  1  2  1  0
  2  3  1  0
  3  4  2  0
  4  5  1  0
  5  6  2  0
  6  7  1  0
  7  8  2  0
  8  9  1  0
  9 10  2  0
 10 11  1  0
 10 12  1  0
 12 13  2  0
  6 14  1  0
 14 15  2  0
 15  3  1  0
 13  7  1  0
  1 16  1  0
  1 17  1  0
  1 18  1  0
  4 19  1  0
  5 20  1  0
  8 21  1  0
  9 22  1  0
 11 23  1  0
 11 24  1  0
 11 25  1  0
 12 26  1  0
 14 27  1  0
 15 28  1  0
M  END
$$$$

     RDKit          3D

 28 29  0  0  0  0  0  0  0  0999 V2000
   -4.0815   -3.3078    1.3724 C   0  0  0  0  0  0  0  0  0  0  0  0
   -2.6731   -3.4696    1.4619 O   0  0  0  0  0  0  0  0  0  0  0  0
   -1.8996   -2.4394    1.0401 C   0  0  0  0  0  0  0  0  0  0  0  0
   -0.5147   -2.6187    1.1245 C   0  0  0  0  0  0  0  0  0  0  0  0
    0.3430   -1.6236    0.7145 C   0  0  0  0  0  0  0  0  0  0  0  0
   -0.1390   -0.4195    0.2004 C   0  0  0  0  0  0  0  0  0  0  0  0
    0.8132    0.6339   -0.2484 C   0  0  0  0  0  0  0  0  0  0  0  0
    0.3864    1.8220   -0.8396 C   0  0  0  0  0  0  0  0  0  0  0  0
    1.3121    2.7590   -1.2359 C   0  0  0  0  0  0  0  0  0  0  0  0
    2.6750    2.5194   -1.0498 C   0  0  0  0  0  0  0  0  0  0  0  0
    3.7130    3.4951   -1.4833 C   0  0  0  0  0  0  0  0  0  0  0  0
    3.0020    1.3028   -0.4531 C   0  0  0  0  0  0  0  0  0  0  0  0
    2.1162    0.3888   -0.0651 N   0  0  0  0  0  0  0  0  0  0  0  0
   -1.5227   -0.2539    0.1270 C   0  0  0  0  0  0  0  0  0  0  0  0
   -2.3966   -1.2428    0.5357 C   0  0  0  0  0  0  0  0  0  0  0  0
   -4.3918   -3.1421    0.3452 H   0  0  0  0  0  0  0  0  0  0  0  0
   -4.5250   -4.2301    1.7373 H   0  0  0  0  0  0  0  0  0  0  0  0
   -4.4215   -2.4811    1.9918 H   0  0  0  0  0  0  0  0  0  0  0  0
   -0.1299   -3.5502    1.5152 H   0  0  0  0  0  0  0  0  0  0  0  0
    1.4109   -1.7692    0.7884 H   0  0  0  0  0  0  0  0  0  0  0  0
   -0.6626    2.0125   -0.9959 H   0  0  0  0  0  0  0  0  0  0  0  0
    0.9876    3.6815   -1.6910 H   0  0  0  0  0  0  0  0  0  0  0  0
    3.8630    3.4511   -2.5574 H   0  0  0  0  0  0  0  0  0  0  0  0
    3.4153    4.5150   -1.2539 H   0  0  0  0  0  0  0  0  0  0  0  0
    4.6723    3.3050   -1.0053 H   0  0  0  0  0  0  0  0  0  0  0  0
    4.0390    1.0526   -0.2808 H   0  0  0  0  0  0  0  0  0  0  0  0
   -1.9333    0.6673   -0.2508 H   0  0  0  0  0  0  0  0  0  0  0  0
   -3.4575   -1.0579    0.4558 H   0  0  0  0  0  0  0  0  0  0  0  0
  1  2  1  0
  2  3  1  0
  3  4  2  0
  4  5  1  0
  5  6  2  0
  6  7  1  0
  7  8  2  0
  8  9  1  0
  9 10  2  0
 10 11  1  0
 10 12  1  0
 12 13  2  0
  6 14  1  0
 14 15  2  0
 15  3  1  0
 13  7  1  0
  1 16  1  0
  1 17  1  0
  1 18  1  0
  4 19  1  0
  5 20  1  0
  8 21  1  0
  9 22  1  0
 11 23  1  0
 11 24  1  0
 11 25  1  0
 12 26  1  0
 14 27  1  0
 15 28  1  0
M  END
$$$$

     RDKit          3D

 28 29  0  0  0  0  0  0  0  0999 V2000
    4.0581    2.0678    2.9616 C   0  0  0  0  0  0  0  0  0  0  0  0
    2.7872    2.5929    2.6034 O   0  0  0  0  0  0  0  0  0  0  0  0
    1.9786    1.8172    1.8439 C   0  0  0  0  0  0  0  0  0  0  0  0
    2.2960    0.5306    1.4050 C   0  0  0  0  0  0  0  0  0  0  0  0
    1.3961   -0.1704    0.6280 C   0  0  0  0  0  0  0  0  0  0  0  0
    0.1604    0.3707    0.2699 C   0  0  0  0  0  0  0  0  0  0  0  0
   -0.7837   -0.4168   -0.5675 C   0  0  0  0  0  0  0  0  0  0  0  0
   -2.1340   -0.0907   -0.6713 C   0  0  0  0  0  0  0  0  0  0  0  0
   -2.9595   -0.8388   -1.4765 C   0  0  0  0  0  0  0  0  0  0  0  0
   -2.4465   -1.9298   -2.1818 C   0  0  0  0  0  0  0  0  0  0  0  0
   -3.3012   -2.7606   -3.0721 C   0  0  0  0  0  0  0  0  0  0  0  0
   -1.0843   -2.1878   -1.9994 C   0  0  0  0  0  0  0  0  0  0  0  0
   -0.2769   -1.4670   -1.2268 N   0  0  0  0  0  0  0  0  0  0  0  0
   -0.1400    1.6597    0.7134 C   0  0  0  0  0  0  0  0  0  0  0  0
    0.7466    2.3690    1.4867 C   0  0  0  0  0  0  0  0  0  0  0  0
    4.5528    2.8379    3.5462 H   0  0  0  0  0  0  0  0  0  0  0  0
    3.9548    1.1697    3.5661 H   0  0  0  0  0  0  0  0  0  0  0  0
    4.6522    1.8466    2.0782 H   0  0  0  0  0  0  0  0  0  0  0  0
    3.2437    0.0714    1.6600 H   0  0  0  0  0  0  0  0  0  0  0  0
    1.6445   -1.1664    0.2818 H   0  0  0  0  0  0  0  0  0  0  0  0
   -2.5327    0.7376   -0.1065 H   0  0  0  0  0  0  0  0  0  0  0  0
   -4.0034   -0.5863   -1.5694 H   0  0  0  0  0  0  0  0  0  0  0  0
   -2.7484   -3.5883   -3.5114 H   0  0  0  0  0  0  0  0  0  0  0  0
   -4.1480   -3.1646   -2.5285 H   0  0  0  0  0  0  0  0  0  0  0  0
   -3.7115   -2.1652   -3.8849 H   0  0  0  0  0  0  0  0  0  0  0  0
   -0.6219   -3.0223   -2.5103 H   0  0  0  0  0  0  0  0  0  0  0  0
   -1.0766    2.1167    0.4387 H   0  0  0  0  0  0  0  0  0  0  0  0
    0.4975    3.3669    1.8235 H   0  0  0  0  0  0  0  0  0  0  0  0
  1  2  1  0
  2  3  1  0
  3  4  2  0
  4  5  1  0
  5  6  2  0
  6  7  1  0
  7  8  2  0
  8  9  1  0
  9 10  2  0
 10 11  1  0
 10 12  1  0
 12 13  2  0
  6 14  1  0
 14 15  2  0
 15  3  1  0
 13  7  1  0
  1 16  1  0
  1 17  1  0
  1 18  1  0
  4 19  1  0
  5 20  1  0
  8 21  1  0
  9 22  1  0
 11 23  1  0
 11 24  1  0
 11 25  1  0
 12 26  1  0
 14 27  1  0
 15 28  1  0
M  END
$$$$

     RDKit          3D

 28 29  0  0  0  0  0  0  0  0999 V2000
    4.6462    2.1430   -1.8019 C   0  0  0  0  0  0  0  0  0  0  0  0
    4.3896    0.9552   -1.0633 O   0  0  0  0  0  0  0  0  0  0  0  0
    3.0986    0.6839   -0.7549 C   0  0  0  0  0  0  0  0  0  0  0  0
    2.8600   -0.4862   -0.0279 C   0  0  0  0  0  0  0  0  0  0  0  0
    1.5760   -0.8382    0.3221 C   0  0  0  0  0  0  0  0  0  0  0  0
    0.4857   -0.0439   -0.0338 C   0  0  0  0  0  0  0  0  0  0  0  0
   -0.8917   -0.4511    0.3556 C   0  0  0  0  0  0  0  0  0  0  0  0
   -2.0251    0.1495   -0.1904 C   0  0  0  0  0  0  0  0  0  0  0  0
   -3.2743   -0.2442    0.2282 C   0  0  0  0  0  0  0  0  0  0  0  0
   -3.4067   -1.2547    1.1842 C   0  0  0  0  0  0  0  0  0  0  0  0
   -4.7419   -1.7098    1.6580 C   0  0  0  0  0  0  0  0  0  0  0  0
   -2.2153   -1.8075    1.6541 C   0  0  0  0  0  0  0  0  0  0  0  0
   -1.0021   -1.4314    1.2604 N   0  0  0  0  0  0  0  0  0  0  0  0
    0.7386    1.1271   -0.7482 C   0  0  0  0  0  0  0  0  0  0  0  0
    2.0216    1.4901   -1.1119 C   0  0  0  0  0  0  0  0  0  0  0  0
    5.7222    2.1900   -1.9505 H   0  0  0  0  0  0  0  0  0  0  0  0
    4.3218    3.0204   -1.2499 H   0  0  0  0  0  0  0  0  0  0  0  0
    4.1531    2.1178   -2.7700 H   0  0  0  0  0  0  0  0  0  0  0  0
    3.7000   -1.1076    0.2549 H   0  0  0  0  0  0  0  0  0  0  0  0
    1.4006   -1.7414    0.8870 H   0  0  0  0  0  0  0  0  0  0  0  0
   -1.9341    0.9166   -0.9426 H   0  0  0  0  0  0  0  0  0  0  0  0
   -4.1579    0.2183   -0.1849 H   0  0  0  0  0  0  0  0  0  0  0  0
   -4.6645   -2.3727    2.5185 H   0  0  0  0  0  0  0  0  0  0  0  0
   -5.2761   -2.2406    0.8750 H   0  0  0  0  0  0  0  0  0  0  0  0
   -5.3651   -0.8631    1.9370 H   0  0  0  0  0  0  0  0  0  0  0  0
   -2.2451   -2.5999    2.3881 H   0  0  0  0  0  0  0  0  0  0  0  0
   -0.0780    1.7755   -1.0252 H   0  0  0  0  0  0  0  0  0  0  0  0
    2.1638    2.4047   -1.6679 H   0  0  0  0  0  0  0  0  0  0  0  0
  1  2  1  0
  2  3  1  0
  3  4  2  0
  4  5  1  0
  5  6  2  0
  6  7  1  0
  7  8  2  0
  8  9  1  0
  9 10  2  0
 10 11  1  0
 10 12  1  0
 12 13  2  0
  6 14  1  0
 14 15  2  0
 15  3  1  0
 13  7  1  0
  1 16  1  0
  1 17  1  0
  1 18  1  0
  4 19  1  0
  5 20  1  0
  8 21  1  0
  9 22  1  0
 11 23  1  0
 11 24  1  0
 11 25  1  0
 12 26  1  0
 14 27  1  0
 15 28  1  0
M  END
$$$$

     RDKit          3D

 28 29  0  0  0  0  0  0  0  0999 V2000
    2.9817   -4.4757    0.7384 C   0  0  0  0  0  0  0  0  0  0  0  0
    3.0560   -3.4484   -0.2424 O   0  0  0  0  0  0  0  0  0  0  0  0
    2.1467   -2.4475   -0.1696 C   0  0  0  0  0  0  0  0  0  0  0  0
    1.1463   -2.3568    0.7987 C   0  0  0  0  0  0  0  0  0  0  0  0
    0.2724   -1.2876    0.7862 C   0  0  0  0  0  0  0  0  0  0  0  0
    0.3639   -0.2801   -0.1752 C   0  0  0  0  0  0  0  0  0  0  0  0
   -0.5852    0.8654   -0.1471 C   0  0  0  0  0  0  0  0  0  0  0  0
   -0.3618    2.0381   -0.8636 C   0  0  0  0  0  0  0  0  0  0  0  0
   -1.2799    3.0606   -0.8083 C   0  0  0  0  0  0  0  0  0  0  0  0
   -2.4276    2.9269   -0.0268 C   0  0  0  0  0  0  0  0  0  0  0  0
   -3.4450    4.0087    0.0848 C   0  0  0  0  0  0  0  0  0  0  0  0
   -2.5565    1.7186    0.6657 C   0  0  0  0  0  0  0  0  0  0  0  0
   -1.6783    0.7233    0.6156 N   0  0  0  0  0  0  0  0  0  0  0  0
    1.3581   -0.3960   -1.1481 C   0  0  0  0  0  0  0  0  0  0  0  0
    2.2369   -1.4517   -1.1446 C   0  0  0  0  0  0  0  0  0  0  0  0
    2.0315   -5.0012    0.6842 H   0  0  0  0  0  0  0  0  0  0  0  0
    3.7900   -5.1689    0.5203 H   0  0  0  0  0  0  0  0  0  0  0  0
    3.1178   -4.0759    1.7410 H   0  0  0  0  0  0  0  0  0  0  0  0
    1.0412   -3.1180    1.5608 H   0  0  0  0  0  0  0  0  0  0  0  0
   -0.5084   -1.2217    1.5337 H   0  0  0  0  0  0  0  0  0  0  0  0
    0.5337    2.1533   -1.4528 H   0  0  0  0  0  0  0  0  0  0  0  0
   -1.1115    3.9671   -1.3639 H   0  0  0  0  0  0  0  0  0  0  0  0
   -3.4841    4.6141   -0.8193 H   0  0  0  0  0  0  0  0  0  0  0  0
   -3.2121    4.6772    0.9073 H   0  0  0  0  0  0  0  0  0  0  0  0
   -4.4410    3.6033    0.2616 H   0  0  0  0  0  0  0  0  0  0  0  0
   -3.4223    1.5508    1.2954 H   0  0  0  0  0  0  0  0  0  0  0  0
    1.4342    0.3447   -1.9284 H   0  0  0  0  0  0  0  0  0  0  0  0
    3.0032   -1.5226   -1.9037 H   0  0  0  0  0  0  0  0  0  0  0  0
  1  2  1  0
  2  3  1  0
  3  4  2  0
  4  5  1  0
  5  6  2  0
  6  7  1  0
  7  8  2  0
  8  9  1  0
  9 10  2  0
 10 11  1  0
 10 12  1  0
 12 13  2  0
  6 14  1  0
 14 15  2  0
 15  3  1  0
 13  7  1  0
  1 16  1  0
  1 17  1  0
  1 18  1  0
  4 19  1  0
  5 20  1  0
  8 21  1  0
  9 22  1  0
 11 23  1  0
 11 24  1  0
 11 25  1  0
 12 26  1  0
 14 27  1  0
 15 28  1  0
M  END
$$$$

     RDKit          3D

 28 29  0  0  0  0  0  0  0  0999 V2000
    0.7627    0.2751   -5.3663 C   0  0  0  0  0  0  0  0  0  0  0  0
    1.6574    0.4682   -4.2777 O   0  0  0  0  0  0  0  0  0  0  0  0
    1.1572    0.3294   -3.0265 C   0  0  0  0  0  0  0  0  0  0  0  0
   -0.1712    0.0205   -2.7322 C   0  0  0  0  0  0  0  0  0  0  0  0
   -0.5755   -0.0941   -1.4166 C   0  0  0  0  0  0  0  0  0  0  0  0
    0.3161    0.0910   -0.3613 C   0  0  0  0  0  0  0  0  0  0  0  0
   -0.1588   -0.0466    1.0410 C   0  0  0  0  0  0  0  0  0  0  0  0
    0.5199    0.5293    2.1088 C   0  0  0  0  0  0  0  0  0  0  0  0
    0.0514    0.3509    3.3906 C   0  0  0  0  0  0  0  0  0  0  0  0
   -1.1048   -0.3959    3.6158 C   0  0  0  0  0  0  0  0  0  0  0  0
   -1.6629   -0.6207    4.9775 C   0  0  0  0  0  0  0  0  0  0  0  0
   -1.7259   -0.9186    2.4746 C   0  0  0  0  0  0  0  0  0  0  0  0
   -1.2836   -0.7520    1.2345 N   0  0  0  0  0  0  0  0  0  0  0  0
    1.6439    0.3935   -0.6692 C   0  0  0  0  0  0  0  0  0  0  0  0
    2.0587    0.5129   -1.9750 C   0  0  0  0  0  0  0  0  0  0  0  0
    0.3535   -0.7319   -5.3686 H   0  0  0  0  0  0  0  0  0  0  0  0
   -0.0483    0.9944   -5.3384 H   0  0  0  0  0  0  0  0  0  0  0  0
    1.3479    0.4253   -6.2725 H   0  0  0  0  0  0  0  0  0  0  0  0
   -0.8961   -0.1275   -3.5224 H   0  0  0  0  0  0  0  0  0  0  0  0
   -1.6058   -0.3400   -1.1896 H   0  0  0  0  0  0  0  0  0  0  0  0
    1.4085    1.1161    1.9319 H   0  0  0  0  0  0  0  0  0  0  0  0
    0.5754    0.7914    4.2220 H   0  0  0  0  0  0  0  0  0  0  0  0
   -1.9046   -1.6682    5.1389 H   0  0  0  0  0  0  0  0  0  0  0  0
   -2.5804   -0.0543    5.1241 H   0  0  0  0  0  0  0  0  0  0  0  0
   -0.9625   -0.3107    5.7505 H   0  0  0  0  0  0  0  0  0  0  0  0
   -2.6274   -1.5107    2.5816 H   0  0  0  0  0  0  0  0  0  0  0  0
    2.3651    0.5222    0.1239 H   0  0  0  0  0  0  0  0  0  0  0  0
    3.0902    0.7510   -2.1994 H   0  0  0  0  0  0  0  0  0  0  0  0
  1  2  1  0
  2  3  1  0
  3  4  2  0
  4  5  1  0
  5  6  2  0
  6  7  1  0
  7  8  2  0
  8  9  1  0
  9 10  2  0
 10 11  1  0
 10 12  1  0
 12 13  2  0
  6 14  1  0
 14 15  2  0
 15  3  1  0
 13  7  1  0
  1 16  1  0
  1 17  1  0
  1 18  1  0
  4 19  1  0
  5 20  1  0
  8 21  1  0
  9 22  1  0
 11 23  1  0
 11 24  1  0
 11 25  1  0
 12 26  1  0
 14 27  1  0
 15 28  1  0
M  END
$$$$
