
     RDKit          3D

 28 30  0  0  0  0  0  0  0  0999 V2000
    2.6039   -4.7440    1.4613 C   0  0  0  0  0  0  0  0  0  0  0  0
    1.2047   -4.4439    1.3886 O   0  0  0  0  0  0  0  0  0  0  0  0
    0.8536   -3.1909    1.0081 C   0  0  0  0  0  0  0  0  0  0  0  0
    1.7618   -2.1722    0.7005 C   0  0  0  0  0  0  0  0  0  0  0  0
    1.3008   -0.9327    0.3203 C   0  0  0  0  0  0  0  0  0  0  0  0
   -0.0709   -0.6693    0.2265 C   0  0  0  0  0  0  0  0  0  0  0  0
   -0.5627    0.6247   -0.1881 C   0  0  0  0  0  0  0  0  0  0  0  0
   -1.7977    0.9853   -0.3376 N   0  0  0  0  0  0  0  0  0  0  0  0
   -1.7236    2.2992   -0.7392 C   0  0  0  0  0  0  0  0  0  0  0  0
   -2.7270    3.2399   -1.0659 C   0  0  0  0  0  0  0  0  0  0  0  0
   -2.3333    4.5085   -1.4462 C   0  0  0  0  0  0  0  0  0  0  0  0
   -0.9676    4.8619   -1.5083 C   0  0  0  0  0  0  0  0  0  0  0  0
    0.0286    3.9423   -1.1932 C   0  0  0  0  0  0  0  0  0  0  0  0
   -0.3941    2.6761   -0.8176 C   0  0  0  0  0  0  0  0  0  0  0  0
    0.3531    1.6005   -0.4616 O   0  0  0  0  0  0  0  0  0  0  0  0
   -0.9702   -1.6898    0.5404 C   0  0  0  0  0  0  0  0  0  0  0  0
   -0.5204   -2.9312    0.9288 C   0  0  0  0  0  0  0  0  0  0  0  0
    3.0954   -4.1046    2.1894 H   0  0  0  0  0  0  0  0  0  0  0  0
    2.6728   -5.7856    1.7766 H   0  0  0  0  0  0  0  0  0  0  0  0
    3.0781   -4.6213    0.4854 H   0  0  0  0  0  0  0  0  0  0  0  0
    2.8270   -2.3399    0.7539 H   0  0  0  0  0  0  0  0  0  0  0  0
    2.0052   -0.1495    0.0866 H   0  0  0  0  0  0  0  0  0  0  0  0
   -3.7721    2.9665   -1.0180 H   0  0  0  0  0  0  0  0  0  0  0  0
   -3.0810    5.2387   -1.7001 H   0  0  0  0  0  0  0  0  0  0  0  0
   -0.6898    5.8577   -1.8042 H   0  0  0  0  0  0  0  0  0  0  0  0
    1.0839    4.1943   -1.2371 H   0  0  0  0  0  0  0  0  0  0  0  0
   -2.0371   -1.5018    0.4801 H   0  0  0  0  0  0  0  0  0  0  0  0
   -1.2213   -3.7188    1.1706 H   0  0  0  0  0  0  0  0  0  0  0  0
  1  2  1  0
  2  3  1  0
  3  4  2  0
  4  5  1  0
  5  6  2  0
  6  7  1  0
  7  8  2  0
  8  9  1  0
  9 10  2  0
 10 11  1  0
 11 12  2  0
 12 13  1  0
 13 14  2  0
 14 15  1  0
  6 16  1  0
 16 17  2  0
 17  3  1  0
 15  7  1  0
 14  9  1  0
  1 18  1  0
  1 19  1  0
  1 20  1  0
  4 21  1  0
  5 22  1  0
 10 23  1  0
 11 24  1  0
 12 25  1  0
 13 26  1  0
 16 27  1  0
 17 28  1  0
M  END
$$$$

     RDKit          3D

 28 30  0  0  0  0  0  0  0  0999 V2000
    0.9183   -3.0336   -4.6242 C   0  0  0  0  0  0  0  0  0  0  0  0
   -0.0590   -3.1986   -3.5900 O   0  0  0  0  0  0  0  0  0  0  0  0
   -0.0552   -2.3007   -2.5728 C   0  0  0  0  0  0  0  0  0  0  0  0
    0.8194   -1.2130   -2.4797 C   0  0  0  0  0  0  0  0  0  0  0  0
    0.7394   -0.3589   -1.4050 C   0  0  0  0  0  0  0  0  0  0  0  0
   -0.2049   -0.5570   -0.3917 C   0  0  0  0  0  0  0  0  0  0  0  0
   -0.2896    0.3358    0.7411 C   0  0  0  0  0  0  0  0  0  0  0  0
   -1.1219    0.2758    1.7310 N   0  0  0  0  0  0  0  0  0  0  0  0
   -0.7815    1.3441    2.5280 C   0  0  0  0  0  0  0  0  0  0  0  0
   -1.3210    1.8114    3.7482 C   0  0  0  0  0  0  0  0  0  0  0  0
   -0.7554    2.9324    4.3235 C   0  0  0  0  0  0  0  0  0  0  0  0
    0.3347    3.5938    3.7154 C   0  0  0  0  0  0  0  0  0  0  0  0
    0.8696    3.1441    2.5107 C   0  0  0  0  0  0  0  0  0  0  0  0
    0.2802    2.0201    1.9539 C   0  0  0  0  0  0  0  0  0  0  0  0
    0.5997    1.3717    0.8037 O   0  0  0  0  0  0  0  0  0  0  0  0
   -1.0762   -1.6427   -0.4928 C   0  0  0  0  0  0  0  0  0  0  0  0
   -1.0063   -2.5040   -1.5644 C   0  0  0  0  0  0  0  0  0  0  0  0
    0.7562   -3.8516   -5.3286 H   0  0  0  0  0  0  0  0  0  0  0  0
    1.9261   -3.0893   -4.2150 H   0  0  0  0  0  0  0  0  0  0  0  0
    0.7858   -2.0798   -5.1352 H   0  0  0  0  0  0  0  0  0  0  0  0
    1.5636   -1.0283   -3.2386 H   0  0  0  0  0  0  0  0  0  0  0  0
    1.4145    0.4797   -1.3383 H   0  0  0  0  0  0  0  0  0  0  0  0
   -2.1550    1.2997    4.2084 H   0  0  0  0  0  0  0  0  0  0  0  0
   -1.1494    3.3046    5.2533 H   0  0  0  0  0  0  0  0  0  0  0  0
    0.7598    4.4601    4.1865 H   0  0  0  0  0  0  0  0  0  0  0  0
    1.7062    3.6387    2.0265 H   0  0  0  0  0  0  0  0  0  0  0  0
   -1.8142   -1.8099    0.2843 H   0  0  0  0  0  0  0  0  0  0  0  0
   -1.6838   -3.3445   -1.6386 H   0  0  0  0  0  0  0  0  0  0  0  0
  1  2  1  0
  2  3  1  0
  3  4  2  0
  4  5  1  0
  5  6  2  0
  6  7  1  0
  7  8  2  0
  8  9  1  0
  9 10  2  0
 10 11  1  0
 11 12  2  0
 12 13  1  0
 13 14  2  0
 14 15  1  0
  6 16  1  0
 16 17  2  0
 17  3  1  0
 15  7  1  0
 14  9  1  0
  1 18  1  0
  1 19  1  0
  1 20  1  0
  4 21  1  0
  5 22  1  0
 10 23  1  0
 11 24  1  0
 12 25  1  0
 13 26  1  0
 16 27  1  0
 17 28  1  0
M  END
$$$$

     RDKit          3D

 28 30  0  0  0  0  0  0  0  0999 V2000
   -4.5333   -3.1072    1.2843 C   0  0  0  0  0  0  0  0  0  0  0  0
   -4.3571   -1.7050    1.0512 O   0  0  0  0  0  0  0  0  0  0  0  0
   -3.1061   -1.2683    0.7563 C   0  0  0  0  0  0  0  0  0  0  0  0
   -2.9642    0.1084    0.5463 C   0  0  0  0  0  0  0  0  0  0  0  0
   -1.7370    0.6407    0.2400 C   0  0  0  0  0  0  0  0  0  0  0  0
   -0.6083   -0.1795    0.1369 C   0  0  0  0  0  0  0  0  0  0  0  0
    0.6902    0.3672   -0.1827 C   0  0  0  0  0  0  0  0  0  0  0  0
    1.8147   -0.2724   -0.2649 N   0  0  0  0  0  0  0  0  0  0  0  0
    2.7347    0.6972   -0.5863 C   0  0  0  0  0  0  0  0  0  0  0  0
    4.1291    0.6315   -0.8062 C   0  0  0  0  0  0  0  0  0  0  0  0
    4.7964    1.8041   -1.1241 C   0  0  0  0  0  0  0  0  0  0  0  0
    4.1078    3.0324   -1.2225 C   0  0  0  0  0  0  0  0  0  0  0  0
    2.7386    3.1068   -1.0010 C   0  0  0  0  0  0  0  0  0  0  0  0
    2.0950    1.9194   -0.6839 C   0  0  0  0  0  0  0  0  0  0  0  0
    0.7757    1.7062   -0.4247 O   0  0  0  0  0  0  0  0  0  0  0  0
   -0.7519   -1.5498    0.3509 C   0  0  0  0  0  0  0  0  0  0  0  0
   -1.9840   -2.0998    0.6564 C   0  0  0  0  0  0  0  0  0  0  0  0
   -3.9335   -3.4280    2.1349 H   0  0  0  0  0  0  0  0  0  0  0  0
   -5.5930   -3.2472    1.4997 H   0  0  0  0  0  0  0  0  0  0  0  0
   -4.2549   -3.6842    0.4016 H   0  0  0  0  0  0  0  0  0  0  0  0
   -3.8316    0.7503    0.6301 H   0  0  0  0  0  0  0  0  0  0  0  0
   -1.6355    1.7046    0.0812 H   0  0  0  0  0  0  0  0  0  0  0  0
    4.6554   -0.3109   -0.7244 H   0  0  0  0  0  0  0  0  0  0  0  0
    5.8583    1.7767   -1.2976 H   0  0  0  0  0  0  0  0  0  0  0  0
    4.6486    3.9273   -1.4721 H   0  0  0  0  0  0  0  0  0  0  0  0
    2.1893    4.0392   -1.0762 H   0  0  0  0  0  0  0  0  0  0  0  0
    0.1159   -2.1948    0.2771 H   0  0  0  0  0  0  0  0  0  0  0  0
   -2.0593   -3.1649    0.8196 H   0  0  0  0  0  0  0  0  0  0  0  0
  1  2  1  0
  2  3  1  0
  3  4  2  0
  4  5  1  0
  5  6  2  0
  6  7  1  0
  7  8  2  0
  8  9  1  0
  9 10  2  0
 10 11  1  0
 11 12  2  0
 12 13  1  0
 13 14  2  0
 14 15  1  0
  6 16  1  0
 16 17  2  0
 17  3  1  0
 15  7  1  0
 14  9  1  0
  1 18  1  0
  1 19  1  0
  1 20  1  0
  4 21  1  0
  5 22  1  0
 10 23  1  0
 11 24  1  0
 12 25  1  0
 13 26  1  0
 16 27  1  0
 17 28  1  0
M  END
$$$$

     RDKit          3D

 28 30  0  0  0  0  0  0  0  0999 V2000
   -4.5642   -3.2174   -0.5172 C   0  0  0  0  0  0  0  0  0  0  0  0
   -3.2305   -3.4151   -1.0015 O   0  0  0  0  0  0  0  0  0  0  0  0
   -2.3166   -2.4487   -0.7410 C   0  0  0  0  0  0  0  0  0  0  0  0
   -2.5917   -1.2677   -0.0432 C   0  0  0  0  0  0  0  0  0  0  0  0
   -1.5882   -0.3520    0.1743 C   0  0  0  0  0  0  0  0  0  0  0  0
   -0.2860   -0.5833   -0.2846 C   0  0  0  0  0  0  0  0  0  0  0  0
    0.7794    0.3620   -0.0408 C   0  0  0  0  0  0  0  0  0  0  0  0
    2.0225    0.2487   -0.3849 N   0  0  0  0  0  0  0  0  0  0  0  0
    2.6150    1.3956    0.0912 C   0  0  0  0  0  0  0  0  0  0  0  0
    3.9529    1.8517    0.0468 C   0  0  0  0  0  0  0  0  0  0  0  0
    4.2477    3.0688    0.6314 C   0  0  0  0  0  0  0  0  0  0  0  0
    3.2443    3.8416    1.2544 C   0  0  0  0  0  0  0  0  0  0  0  0
    1.9243    3.4028    1.3025 C   0  0  0  0  0  0  0  0  0  0  0  0
    1.6574    2.1742    0.7179 C   0  0  0  0  0  0  0  0  0  0  0  0
    0.4758    1.5108    0.6334 O   0  0  0  0  0  0  0  0  0  0  0  0
   -0.0213   -1.7596   -0.9877 C   0  0  0  0  0  0  0  0  0  0  0  0
   -1.0185   -2.6797   -1.2166 C   0  0  0  0  0  0  0  0  0  0  0  0
   -5.0030   -2.3254   -0.9578 H   0  0  0  0  0  0  0  0  0  0  0  0
   -5.1276   -4.0994   -0.8243 H   0  0  0  0  0  0  0  0  0  0  0  0
   -4.5762   -3.1305    0.5698 H   0  0  0  0  0  0  0  0  0  0  0  0
   -3.5834   -1.0572    0.3321 H   0  0  0  0  0  0  0  0  0  0  0  0
   -1.8039    0.5611    0.7061 H   0  0  0  0  0  0  0  0  0  0  0  0
    4.7223    1.2595   -0.4279 H   0  0  0  0  0  0  0  0  0  0  0  0
    5.2603    3.4309    0.6140 H   0  0  0  0  0  0  0  0  0  0  0  0
    3.5004    4.7862    1.6988 H   0  0  0  0  0  0  0  0  0  0  0  0
    1.1372    3.9835    1.7723 H   0  0  0  0  0  0  0  0  0  0  0  0
    0.9816   -1.9507   -1.3543 H   0  0  0  0  0  0  0  0  0  0  0  0
   -0.8099   -3.5903   -1.7633 H   0  0  0  0  0  0  0  0  0  0  0  0
  1  2  1  0
  2  3  1  0
  3  4  2  0
  4  5  1  0
  5  6  2  0
  6  7  1  0
  7  8  2  0
  8  9  1  0
  9 10  2  0
 10 11  1  0
 11 12  2  0
 12 13  1  0
 13 14  2  0
 14 15  1  0
  6 16  1  0
 16 17  2  0
 17  3  1  0
 15  7  1  0
 14  9  1  0
  1 18  1  0
  1 19  1  0
  1 20  1  0
  4 21  1  0
  5 22  1  0
 10 23  1  0
 11 24  1  0
 12 25  1  0
 13 26  1  0
 16 27  1  0
 17 28  1  0
M  END
$$$$

     RDKit          3D

 28 30  0  0  0  0  0  0  0  0999 V2000
    4.0646    3.7440    0.9255 C   0  0  0  0  0  0  0  0  0  0  0  0
    4.1515    2.3476    0.6095 O   0  0  0  0  0  0  0  0  0  0  0  0
    2.9897    1.6692    0.4426 C   0  0  0  0  0  0  0  0  0  0  0  0
    1.7199    2.2494    0.5329 C   0  0  0  0  0  0  0  0  0  0  0  0
    0.5986    1.4777    0.3338 C   0  0  0  0  0  0  0  0  0  0  0  0
    0.7038    0.1118    0.0434 C   0  0  0  0  0  0  0  0  0  0  0  0
   -0.4701   -0.7021   -0.1698 C   0  0  0  0  0  0  0  0  0  0  0  0
   -0.5129   -1.9672   -0.4442 N   0  0  0  0  0  0  0  0  0  0  0  0
   -1.8552   -2.2519   -0.5405 C   0  0  0  0  0  0  0  0  0  0  0  0
   -2.5478   -3.4548   -0.8184 C   0  0  0  0  0  0  0  0  0  0  0  0
   -3.9283   -3.4224   -0.8480 C   0  0  0  0  0  0  0  0  0  0  0  0
   -4.6364   -2.2245   -0.6095 C   0  0  0  0  0  0  0  0  0  0  0  0
   -3.9648   -1.0337   -0.3433 C   0  0  0  0  0  0  0  0  0  0  0  0
   -2.5802   -1.0944   -0.3192 C   0  0  0  0  0  0  0  0  0  0  0  0
   -1.6910   -0.0958   -0.0789 O   0  0  0  0  0  0  0  0  0  0  0  0
    1.9732   -0.4628   -0.0371 C   0  0  0  0  0  0  0  0  0  0  0  0
    3.1021    0.3011    0.1570 C   0  0  0  0  0  0  0  0  0  0  0  0
    3.5359    3.8896    1.8671 H   0  0  0  0  0  0  0  0  0  0  0  0
    5.0907    4.0977    1.0159 H   0  0  0  0  0  0  0  0  0  0  0  0
    3.5576    4.2932    0.1315 H   0  0  0  0  0  0  0  0  0  0  0  0
    1.6010    3.2979    0.7598 H   0  0  0  0  0  0  0  0  0  0  0  0
   -0.3788    1.9287    0.4001 H   0  0  0  0  0  0  0  0  0  0  0  0
   -2.0055   -4.3710   -1.0060 H   0  0  0  0  0  0  0  0  0  0  0  0
   -4.4739   -4.3282   -1.0539 H   0  0  0  0  0  0  0  0  0  0  0  0
   -5.7109   -2.2274   -0.6355 H   0  0  0  0  0  0  0  0  0  0  0  0
   -4.4881   -0.0997   -0.1620 H   0  0  0  0  0  0  0  0  0  0  0  0
    2.0698   -1.5238   -0.2492 H   0  0  0  0  0  0  0  0  0  0  0  0
    4.0856   -0.1483    0.0964 H   0  0  0  0  0  0  0  0  0  0  0  0
  1  2  1  0
  2  3  1  0
  3  4  2  0
  4  5  1  0
  5  6  2  0
  6  7  1  0
  7  8  2  0
  8  9  1  0
  9 10  2  0
 10 11  1  0
 11 12  2  0
 12 13  1  0
 13 14  2  0
 14 15  1  0
  6 16  1  0
 16 17  2  0
 17  3  1  0
 15  7  1  0
 14  9  1  0
  1 18  1  0
  1 19  1  0
  1 20  1  0
  4 21  1  0
  5 22  1  0
 10 23  1  0
 11 24  1  0
 12 25  1  0
 13 26  1  0
 16 27  1  0
 17 28  1  0
M  END
$$$$

     RDKit          3D

 28 30  0  0  0  0  0  0  0  0999 V2000
    1.6359   -1.4629    5.1557 C   0  0  0  0  0  0  0  0  0  0  0  0
    0.4292   -1.7752    4.4485 O   0  0  0  0  0  0  0  0  0  0  0  0
    0.2906   -1.2707    3.1975 C   0  0  0  0  0  0  0  0  0  0  0  0
    1.2429   -0.4661    2.5618 C   0  0  0  0  0  0  0  0  0  0  0  0
    1.0088   -0.0111    1.2853 C   0  0  0  0  0  0  0  0  0  0  0  0
   -0.1718   -0.3369    0.6048 C   0  0  0  0  0  0  0  0  0  0  0  0
   -0.4194    0.1329   -0.7387 C   0  0  0  0  0  0  0  0  0  0  0  0
   -1.4693   -0.0801   -1.4669 N   0  0  0  0  0  0  0  0  0  0  0  0
   -1.2055    0.5710   -2.6496 C   0  0  0  0  0  0  0  0  0  0  0  0
   -1.9580    0.6995   -3.8403 C   0  0  0  0  0  0  0  0  0  0  0  0
   -1.4127    1.4232   -4.8828 C   0  0  0  0  0  0  0  0  0  0  0  0
   -0.1395    2.0231   -4.7670 C   0  0  0  0  0  0  0  0  0  0  0  0
    0.6108    1.9008   -3.5999 C   0  0  0  0  0  0  0  0  0  0  0  0
    0.0420    1.1661   -2.5709 C   0  0  0  0  0  0  0  0  0  0  0  0
    0.5462    0.8872   -1.3400 O   0  0  0  0  0  0  0  0  0  0  0  0
   -1.1193   -1.1357    1.2473 C   0  0  0  0  0  0  0  0  0  0  0  0
   -0.8959   -1.5955    2.5250 C   0  0  0  0  0  0  0  0  0  0  0  0
    2.5085   -1.8430    4.6229 H   0  0  0  0  0  0  0  0  0  0  0  0
    1.5569   -1.9525    6.1257 H   0  0  0  0  0  0  0  0  0  0  0  0
    1.7317   -0.3864    5.2879 H   0  0  0  0  0  0  0  0  0  0  0  0
    2.1637   -0.1890    3.0554 H   0  0  0  0  0  0  0  0  0  0  0  0
    1.7467    0.6016    0.7911 H   0  0  0  0  0  0  0  0  0  0  0  0
   -2.9322    0.2387   -3.9259 H   0  0  0  0  0  0  0  0  0  0  0  0
   -1.9688    1.5333   -5.7982 H   0  0  0  0  0  0  0  0  0  0  0  0
    0.2598    2.5822   -5.5919 H   0  0  0  0  0  0  0  0  0  0  0  0
    1.5918    2.3550   -3.4910 H   0  0  0  0  0  0  0  0  0  0  0  0
   -2.0403   -1.3946    0.7325 H   0  0  0  0  0  0  0  0  0  0  0  0
   -1.6326   -2.2148    3.0216 H   0  0  0  0  0  0  0  0  0  0  0  0
  1  2  1  0
  2  3  1  0
  3  4  2  0
  4  5  1  0
  5  6  2  0
  6  7  1  0
  7  8  2  0
  8  9  1  0
  9 10  2  0
 10 11  1  0
 11 12  2  0
 12 13  1  0
 13 14  2  0
 14 15  1  0
  6 16  1  0
 16 17  2  0
 17  3  1  0
 15  7  1  0
 14  9  1  0
  1 18  1  0
  1 19  1  0
  1 20  1  0
  4 21  1  0
  5 22  1  0
 10 23  1  0
 11 24  1  0
 12 25  1  0
 13 26  1  0
 16 27  1  0
 17 28  1  0
M  END
$$$$

     RDKit          3D

 28 30  0  0  0  0  0  0  0  0999 V2000
    5.5733    0.4636   -0.7559 C   0  0  0  0  0  0  0  0  0  0  0  0
    4.7260   -0.6623   -0.4962 O   0  0  0  0  0  0  0  0  0  0  0  0
    3.3978   -0.4284   -0.3475 C   0  0  0  0  0  0  0  0  0  0  0  0
    2.8048    0.8383   -0.4107 C   0  0  0  0  0  0  0  0  0  0  0  0
    1.4421    0.9661   -0.2543 C   0  0  0  0  0  0  0  0  0  0  0  0
    0.6326   -0.1487   -0.0342 C   0  0  0  0  0  0  0  0  0  0  0  0
   -0.7950    0.0190    0.1192 C   0  0  0  0  0  0  0  0  0  0  0  0
   -1.4626    1.1322    0.1120 N   0  0  0  0  0  0  0  0  0  0  0  0
   -2.7705    0.7430    0.2824 C   0  0  0  0  0  0  0  0  0  0  0  0
   -3.9679    1.4902    0.3577 C   0  0  0  0  0  0  0  0  0  0  0  0
   -5.1575    0.8022    0.5383 C   0  0  0  0  0  0  0  0  0  0  0  0
   -5.1768   -0.6055    0.6382 C   0  0  0  0  0  0  0  0  0  0  0  0
   -4.0045   -1.3470    0.5662 C   0  0  0  0  0  0  0  0  0  0  0  0
   -2.8270   -0.6343    0.3929 C   0  0  0  0  0  0  0  0  0  0  0  0
   -1.5528   -1.0993    0.2879 O   0  0  0  0  0  0  0  0  0  0  0  0
    1.2325   -1.4122    0.0294 C   0  0  0  0  0  0  0  0  0  0  0  0
    2.5930   -1.5504   -0.1170 C   0  0  0  0  0  0  0  0  0  0  0  0
    5.2730    0.9743   -1.6725 H   0  0  0  0  0  0  0  0  0  0  0  0
    6.5811    0.0648   -0.8731 H   0  0  0  0  0  0  0  0  0  0  0  0
    5.5395    1.1628    0.0774 H   0  0  0  0  0  0  0  0  0  0  0  0
    3.4010    1.7241   -0.5751 H   0  0  0  0  0  0  0  0  0  0  0  0
    0.9839    1.9486   -0.3075 H   0  0  0  0  0  0  0  0  0  0  0  0
   -3.9468    2.5689    0.2814 H   0  0  0  0  0  0  0  0  0  0  0  0
   -6.0807    1.3498    0.6053 H   0  0  0  0  0  0  0  0  0  0  0  0
   -6.1124   -1.1162    0.7737 H   0  0  0  0  0  0  0  0  0  0  0  0
   -4.0031   -2.4282    0.6422 H   0  0  0  0  0  0  0  0  0  0  0  0
    0.6241   -2.2872    0.1964 H   0  0  0  0  0  0  0  0  0  0  0  0
    3.0532   -2.5283   -0.0566 H   0  0  0  0  0  0  0  0  0  0  0  0
  1  2  1  0
  2  3  1  0
  3  4  2  0
  4  5  1  0
  5  6  2  0
  6  7  1  0
  7  8  2  0
  8  9  1  0
  9 10  2  0
 10 11  1  0
 11 12  2  0
 12 13  1  0
 13 14  2  0
 14 15  1  0
  6 16  1  0
 16 17  2  0
 17  3  1  0
 15  7  1  0
 14  9  1  0
  1 18  1  0
  1 19  1  0
  1 20  1  0
  4 21  1  0
  5 22  1  0
 10 23  1  0
 11 24  1  0
 12 25  1  0
 13 26  1  0
 16 27  1  0
 17 28  1  0
M  END
$$$$

     RDKit          3D

 28 30  0  0  0  0  0  0  0  0999 V2000
   -1.0775    1.9151    5.1559 C   0  0  0  0  0  0  0  0  0  0  0  0
   -1.8914    1.1326    4.2716 O   0  0  0  0  0  0  0  0  0  0  0  0
   -1.3746    0.8164    3.0600 C   0  0  0  0  0  0  0  0  0  0  0  0
   -0.1068    1.2071    2.6156 C   0  0  0  0  0  0  0  0  0  0  0  0
    0.3275    0.8313    1.3664 C   0  0  0  0  0  0  0  0  0  0  0  0
   -0.4758    0.0525    0.5255 C   0  0  0  0  0  0  0  0  0  0  0  0
   -0.0180   -0.3605   -0.7805 C   0  0  0  0  0  0  0  0  0  0  0  0
   -0.6542   -1.0887   -1.6417 N   0  0  0  0  0  0  0  0  0  0  0  0
    0.2092   -1.1932   -2.7063 C   0  0  0  0  0  0  0  0  0  0  0  0
    0.0950   -1.8618   -3.9476 C   0  0  0  0  0  0  0  0  0  0  0  0
    1.1551   -1.7883   -4.8304 C   0  0  0  0  0  0  0  0  0  0  0  0
    2.3219   -1.0610   -4.5089 C   0  0  0  0  0  0  0  0  0  0  0  0
    2.4469   -0.4020   -3.2891 C   0  0  0  0  0  0  0  0  0  0  0  0
    1.3702   -0.4967   -2.4200 C   0  0  0  0  0  0  0  0  0  0  0  0
    1.2253    0.0412   -1.1815 O   0  0  0  0  0  0  0  0  0  0  0  0
   -1.7429   -0.3284    0.9723 C   0  0  0  0  0  0  0  0  0  0  0  0
   -2.1895    0.0465    2.2191 C   0  0  0  0  0  0  0  0  0  0  0  0
   -0.1498    1.3946    5.3945 H   0  0  0  0  0  0  0  0  0  0  0  0
   -0.8506    2.8828    4.7102 H   0  0  0  0  0  0  0  0  0  0  0  0
   -1.6666    2.0521    6.0629 H   0  0  0  0  0  0  0  0  0  0  0  0
    0.5426    1.8049    3.2374 H   0  0  0  0  0  0  0  0  0  0  0  0
    1.3036    1.1413    1.0287 H   0  0  0  0  0  0  0  0  0  0  0  0
   -0.7989   -2.4193   -4.1895 H   0  0  0  0  0  0  0  0  0  0  0  0
    1.0888   -2.2935   -5.7789 H   0  0  0  0  0  0  0  0  0  0  0  0
    3.1303   -1.0133   -5.2156 H   0  0  0  0  0  0  0  0  0  0  0  0
    3.3362    0.1624   -3.0235 H   0  0  0  0  0  0  0  0  0  0  0  0
   -2.3822   -0.9263    0.3312 H   0  0  0  0  0  0  0  0  0  0  0  0
   -3.1740   -0.2481    2.5624 H   0  0  0  0  0  0  0  0  0  0  0  0
  1  2  1  0
  2  3  1  0
  3  4  2  0
  4  5  1  0
  5  6  2  0
  6  7  1  0
  7  8  2  0
  8  9  1  0
  9 10  2  0
 10 11  1  0
 11 12  2  0
 12 13  1  0
 13 14  2  0
 14 15  1  0
  6 16  1  0
 16 17  2  0
 17  3  1  0
 15  7  1  0
 14  9  1  0
  1 18  1  0
  1 19  1  0
  1 20  1  0
  4 21  1  0
  5 22  1  0
 10 23  1  0
 11 24  1  0
 12 25  1  0
 13 26  1  0
 16 27  1  0
 17 28  1  0
M  END
$$$$

     RDKit          3D

 28 30  0  0  0  0  0  0  0  0999 V2000
    4.0375   -2.3353    3.1072 C   0  0  0  0  0  0  0  0  0  0  0  0
    3.7634   -2.4568    1.7063 O   0  0  0  0  0  0  0  0  0  0  0  0
    2.7053   -1.7671    1.2126 C   0  0  0  0  0  0  0  0  0  0  0  0
    1.8801   -0.9318    1.9726 C   0  0  0  0  0  0  0  0  0  0  0  0
    0.8290   -0.2775    1.3726 C   0  0  0  0  0  0  0  0  0  0  0  0
    0.5666   -0.4302    0.0055 C   0  0  0  0  0  0  0  0  0  0  0  0
   -0.5328    0.2582   -0.6312 C   0  0  0  0  0  0  0  0  0  0  0  0
   -0.8717    0.2209   -1.8799 N   0  0  0  0  0  0  0  0  0  0  0  0
   -1.9749    1.0397   -1.9583 C   0  0  0  0  0  0  0  0  0  0  0  0
   -2.7949    1.4060   -3.0503 C   0  0  0  0  0  0  0  0  0  0  0  0
   -3.8547    2.2594   -2.8119 C   0  0  0  0  0  0  0  0  0  0  0  0
   -4.1120    2.7577   -1.5147 C   0  0  0  0  0  0  0  0  0  0  0  0
   -3.3043    2.4105   -0.4346 C   0  0  0  0  0  0  0  0  0  0  0  0
   -2.2509    1.5520   -0.7036 C   0  0  0  0  0  0  0  0  0  0  0  0
   -1.3242    1.0503    0.1531 O   0  0  0  0  0  0  0  0  0  0  0  0
    1.3948   -1.2652   -0.7459 C   0  0  0  0  0  0  0  0  0  0  0  0
    2.4486   -1.9243   -0.1561 C   0  0  0  0  0  0  0  0  0  0  0  0
    4.9062   -2.9660    3.3009 H   0  0  0  0  0  0  0  0  0  0  0  0
    4.2664   -1.3022    3.3696 H   0  0  0  0  0  0  0  0  0  0  0  0
    3.1904   -2.6833    3.6970 H   0  0  0  0  0  0  0  0  0  0  0  0
    2.0528   -0.7886    3.0290 H   0  0  0  0  0  0  0  0  0  0  0  0
    0.1946    0.3644    1.9622 H   0  0  0  0  0  0  0  0  0  0  0  0
   -2.5850    1.0263   -4.0408 H   0  0  0  0  0  0  0  0  0  0  0  0
   -4.4962    2.5490   -3.6264 H   0  0  0  0  0  0  0  0  0  0  0  0
   -4.9453    3.4171   -1.3568 H   0  0  0  0  0  0  0  0  0  0  0  0
   -3.4811    2.7849    0.5699 H   0  0  0  0  0  0  0  0  0  0  0  0
    1.2047   -1.3953   -1.8074 H   0  0  0  0  0  0  0  0  0  0  0  0
    3.0876   -2.5730   -0.7406 H   0  0  0  0  0  0  0  0  0  0  0  0
  1  2  1  0
  2  3  1  0
  3  4  2  0
  4  5  1  0
  5  6  2  0
  6  7  1  0
  7  8  2  0
  8  9  1  0
  9 10  2  0
 10 11  1  0
 11 12  2  0
 12 13  1  0
 13 14  2  0
 14 15  1  0
  6 16  1  0
 16 17  2  0
 17  3  1  0
 15  7  1  0
 14  9  1  0
  1 18  1  0
  1 19  1  0
  1 20  1  0
  4 21  1  0
  5 22  1  0
 10 23  1  0
 11 24  1  0
 12 25  1  0
 13 26  1  0
 16 27  1  0
 17 28  1  0
M  END
$$$$

     RDKit          3D

 28 30  0  0  0  0  0  0  0  0999 V2000
    2.5129    3.3928    3.7430 C   0  0  0  0  0  0  0  0  0  0  0  0
    1.2734    3.4905    3.0330 O   0  0  0  0  0  0  0  0  0  0  0  0
    0.9577    2.4795    2.1830 C   0  0  0  0  0  0  0  0  0  0  0  0
   -0.2559    2.6039    1.4992 C   0  0  0  0  0  0  0  0  0  0  0  0
   -0.6572    1.6323    0.6164 C   0  0  0  0  0  0  0  0  0  0  0  0
    0.1347    0.5004    0.3904 C   0  0  0  0  0  0  0  0  0  0  0  0
   -0.2843   -0.5382   -0.5236 C   0  0  0  0  0  0  0  0  0  0  0  0
    0.3357   -1.6423   -0.8018 N   0  0  0  0  0  0  0  0  0  0  0  0
   -0.4783   -2.2689   -1.7156 C   0  0  0  0  0  0  0  0  0  0  0  0
   -0.3539   -3.5025   -2.3948 C   0  0  0  0  0  0  0  0  0  0  0  0
   -1.3572   -3.8663   -3.2783 C   0  0  0  0  0  0  0  0  0  0  0  0
   -2.4755   -3.0332   -3.4965 C   0  0  0  0  0  0  0  0  0  0  0  0
   -2.6063   -1.8201   -2.8335 C   0  0  0  0  0  0  0  0  0  0  0  0
   -1.5866   -1.4778   -1.9571 C   0  0  0  0  0  0  0  0  0  0  0  0
   -1.4632   -0.3639   -1.1849 O   0  0  0  0  0  0  0  0  0  0  0  0
    1.3474    0.3840    1.0685 C   0  0  0  0  0  0  0  0  0  0  0  0
    1.7628    1.3567    1.9600 C   0  0  0  0  0  0  0  0  0  0  0  0
    3.3476    3.3536    3.0444 H   0  0  0  0  0  0  0  0  0  0  0  0
    2.5238    2.5049    4.3757 H   0  0  0  0  0  0  0  0  0  0  0  0
    2.5822    4.2905    4.3576 H   0  0  0  0  0  0  0  0  0  0  0  0
   -0.8741    3.4755    1.6714 H   0  0  0  0  0  0  0  0  0  0  0  0
   -1.5916    1.7433    0.0844 H   0  0  0  0  0  0  0  0  0  0  0  0
    0.5034   -4.1403   -2.2228 H   0  0  0  0  0  0  0  0  0  0  0  0
   -1.2821   -4.7990   -3.8108 H   0  0  0  0  0  0  0  0  0  0  0  0
   -3.2388   -3.3392   -4.1888 H   0  0  0  0  0  0  0  0  0  0  0  0
   -3.4593   -1.1690   -2.9845 H   0  0  0  0  0  0  0  0  0  0  0  0
    1.9757   -0.4820    0.8985 H   0  0  0  0  0  0  0  0  0  0  0  0
    2.7072    1.2350    2.4675 H   0  0  0  0  0  0  0  0  0  0  0  0
  1  2  1  0
  2  3  1  0
  3  4  2  0
  4  5  1  0
  5  6  2  0
  6  7  1  0
  7  8  2  0
  8  9  1  0
  9 10  2  0
 10 11  1  0
 11 12  2  0
 12 13  1  0
 13 14  2  0
 14 15  1  0
  6 16  1  0
 16 17  2  0
 17  3  1  0
 15  7  1  0
 14  9  1  0
  1 18  1  0
  1 19  1  0
  1 20  1  0
  4 21  1  0
  5 22  1  0
 10 23  1  0
 11 24  1  0
 12 25  1  0
 13 26  1  0
 16 27  1  0
 17 28  1  0
M  END
$$$$

     RDKit          3D

 28 30  0  0  0  0  0  0  0  0999 V2000
    2.5139   -4.7499    1.5739 C   0  0  0  0  0  0  0  0  0  0  0  0
    1.3810   -4.5505    0.7206 O   0  0  0  0  0  0  0  0  0  0  0  0
    0.9828   -3.2720    0.5035 C   0  0  0  0  0  0  0  0  0  0  0  0
    1.5929   -2.1458    1.0652 C   0  0  0  0  0  0  0  0  0  0  0  0
    1.1029   -0.8903    0.7883 C   0  0  0  0  0  0  0  0  0  0  0  0
   -0.0001   -0.7154   -0.0546 C   0  0  0  0  0  0  0  0  0  0  0  0
   -0.5154    0.6028   -0.3445 C   0  0  0  0  0  0  0  0  0  0  0  0
   -1.5323    0.9090   -1.0833 N   0  0  0  0  0  0  0  0  0  0  0  0
   -1.5924    2.2833   -1.0317 C   0  0  0  0  0  0  0  0  0  0  0  0
   -2.4763    3.2085   -1.6324 C   0  0  0  0  0  0  0  0  0  0  0  0
   -2.2758    4.5544   -1.3916 C   0  0  0  0  0  0  0  0  0  0  0  0
   -1.2175    5.0000   -0.5696 C   0  0  0  0  0  0  0  0  0  0  0  0
   -0.3388    4.0970    0.0238 C   0  0  0  0  0  0  0  0  0  0  0  0
   -0.5637    2.7535   -0.2356 C   0  0  0  0  0  0  0  0  0  0  0  0
    0.1296    1.6734    0.2103 O   0  0  0  0  0  0  0  0  0  0  0  0
   -0.6013   -1.8434   -0.6156 C   0  0  0  0  0  0  0  0  0  0  0  0
   -0.1210   -3.1046   -0.3430 C   0  0  0  0  0  0  0  0  0  0  0  0
    2.6723   -5.8287    1.6221 H   0  0  0  0  0  0  0  0  0  0  0  0
    3.3985   -4.2641    1.1640 H   0  0  0  0  0  0  0  0  0  0  0  0
    2.3161   -4.3604    2.5724 H   0  0  0  0  0  0  0  0  0  0  0  0
    2.4471   -2.2390    1.7198 H   0  0  0  0  0  0  0  0  0  0  0  0
    1.5731   -0.0252    1.2247 H   0  0  0  0  0  0  0  0  0  0  0  0
   -3.2840    2.8619   -2.2625 H   0  0  0  0  0  0  0  0  0  0  0  0
   -2.9399    5.2754   -1.8357 H   0  0  0  0  0  0  0  0  0  0  0  0
   -1.0855    6.0536   -0.3980 H   0  0  0  0  0  0  0  0  0  0  0  0
    0.4773    4.4182    0.6618 H   0  0  0  0  0  0  0  0  0  0  0  0
   -1.4552   -1.7227   -1.2741 H   0  0  0  0  0  0  0  0  0  0  0  0
   -0.5882   -3.9789   -0.7784 H   0  0  0  0  0  0  0  0  0  0  0  0
  1  2  1  0
  2  3  1  0
  3  4  2  0
  4  5  1  0
  5  6  2  0
  6  7  1  0
  7  8  2  0
  8  9  1  0
  9 10  2  0
 10 11  1  0
 11 12  2  0
 12 13  1  0
 13 14  2  0
 14 15  1  0
  6 16  1  0
 16 17  2  0
 17  3  1  0
 15  7  1  0
 14  9  1  0
  1 18  1  0
  1 19  1  0
  1 20  1  0
  4 21  1  0
  5 22  1  0
 10 23  1  0
 11 24  1  0
 12 25  1  0
 13 26  1  0
 16 27  1  0
 17 28  1  0
M  END
$$$$

     RDKit          3D

 28 30  0  0  0  0  0  0  0  0999 V2000
   -1.3347   -4.3237   -3.3002 C   0  0  0  0  0  0  0  0  0  0  0  0
   -1.5907   -2.9224   -3.4704 O   0  0  0  0  0  0  0  0  0  0  0  0
   -1.1503   -2.0838   -2.5009 C   0  0  0  0  0  0  0  0  0  0  0  0
   -0.4420   -2.4927   -1.3661 C   0  0  0  0  0  0  0  0  0  0  0  0
   -0.0355   -1.5597   -0.4408 C   0  0  0  0  0  0  0  0  0  0  0  0
   -0.3185   -0.1993   -0.6117 C   0  0  0  0  0  0  0  0  0  0  0  0
    0.1047    0.7803    0.3620 C   0  0  0  0  0  0  0  0  0  0  0  0
   -0.0832    2.0602    0.3320 N   0  0  0  0  0  0  0  0  0  0  0  0
    0.5141    2.5211    1.4830 C   0  0  0  0  0  0  0  0  0  0  0  0
    0.6513    3.8251    2.0160 C   0  0  0  0  0  0  0  0  0  0  0  0
    1.3171    3.9735    3.2164 C   0  0  0  0  0  0  0  0  0  0  0  0
    1.8487    2.8565    3.8982 C   0  0  0  0  0  0  0  0  0  0  0  0
    1.7268    1.5703    3.3785 C   0  0  0  0  0  0  0  0  0  0  0  0
    1.0551    1.4512    2.1727 C   0  0  0  0  0  0  0  0  0  0  0  0
    0.7915    0.3289    1.4547 O   0  0  0  0  0  0  0  0  0  0  0  0
   -1.0224    0.2023   -1.7477 C   0  0  0  0  0  0  0  0  0  0  0  0
   -1.4367   -0.7223   -2.6795 C   0  0  0  0  0  0  0  0  0  0  0  0
   -0.2641   -4.5235   -3.2644 H   0  0  0  0  0  0  0  0  0  0  0  0
   -1.8054   -4.6911   -2.3888 H   0  0  0  0  0  0  0  0  0  0  0  0
   -1.7669   -4.8168   -4.1703 H   0  0  0  0  0  0  0  0  0  0  0  0
   -0.2045   -3.5341   -1.1983 H   0  0  0  0  0  0  0  0  0  0  0  0
    0.5120   -1.8768    0.4315 H   0  0  0  0  0  0  0  0  0  0  0  0
    0.2425    4.6760    1.4893 H   0  0  0  0  0  0  0  0  0  0  0  0
    1.4322    4.9573    3.6412 H   0  0  0  0  0  0  0  0  0  0  0  0
    2.3579    2.9991    4.8327 H   0  0  0  0  0  0  0  0  0  0  0  0
    2.1318    0.6993    3.8842 H   0  0  0  0  0  0  0  0  0  0  0  0
   -1.2417    1.2546   -1.8963 H   0  0  0  0  0  0  0  0  0  0  0  0
   -1.9890   -0.4098   -3.5571 H   0  0  0  0  0  0  0  0  0  0  0  0
  1  2  1  0
  2  3  1  0
  3  4  2  0
  4  5  1  0
  5  6  2  0
  6  7  1  0
  7  8  2  0
  8  9  1  0
  9 10  2  0
 10 11  1  0
 11 12  2  0
 12 13  1  0
 13 14  2  0
 14 15  1  0
  6 16  1  0
 16 17  2  0
 17  3  1  0
 15  7  1  0
 14  9  1  0
  1 18  1  0
  1 19  1  0
  1 20  1  0
  4 21  1  0
  5 22  1  0
 10 23  1  0
 11 24  1  0
 12 25  1  0
 13 26  1  0
 16 27  1  0
 17 28  1  0
M  END
$$$$
