
     RDKit          3D

 24 25  0  0  0  0  0  0  0  0999 V2000
   -0.2921    4.3752   -0.3990 C   0  0  0  0  0  0  0  0  0  0  0  0
   -0.1468    2.8988   -0.2459 C   0  0  0  0  0  0  0  0  0  0  0  0
    1.0028    2.2940    0.2695 C   0  0  0  0  0  0  0  0  0  0  0  0
    1.0755    0.9233    0.3865 C   0  0  0  0  0  0  0  0  0  0  0  0
   -0.0133    0.1424   -0.0116 C   0  0  0  0  0  0  0  0  0  0  0  0
    0.0054   -1.3457    0.0970 C   0  0  0  0  0  0  0  0  0  0  0  0
   -0.9332   -2.1012   -0.6148 C   0  0  0  0  0  0  0  0  0  0  0  0
   -0.9415   -3.4883   -0.5406 C   0  0  0  0  0  0  0  0  0  0  0  0
   -0.0056   -4.1310    0.2561 C   0  0  0  0  0  0  0  0  0  0  0  0
   -0.0088   -5.8731    0.3525 Cl  0  0  0  0  0  0  0  0  0  0  0  0
    0.9320   -3.4173    0.9756 C   0  0  0  0  0  0  0  0  0  0  0  0
    0.9325   -2.0300    0.8969 C   0  0  0  0  0  0  0  0  0  0  0  0
   -1.1183    0.7093   -0.5177 N   0  0  0  0  0  0  0  0  0  0  0  0
   -1.1808    2.0268   -0.6221 C   0  0  0  0  0  0  0  0  0  0  0  0
    0.5836    4.9041   -0.0157 H   0  0  0  0  0  0  0  0  0  0  0  0
   -1.1724    4.7352    0.1292 H   0  0  0  0  0  0  0  0  0  0  0  0
   -0.4164    4.6469   -1.4477 H   0  0  0  0  0  0  0  0  0  0  0  0
    1.8403    2.9024    0.5719 H   0  0  0  0  0  0  0  0  0  0  0  0
    1.9652    0.4516    0.7754 H   0  0  0  0  0  0  0  0  0  0  0  0
   -1.6648   -1.5931   -1.2283 H   0  0  0  0  0  0  0  0  0  0  0  0
   -1.6669   -4.0605   -1.1035 H   0  0  0  0  0  0  0  0  0  0  0  0
    1.6561   -3.9236    1.5967 H   0  0  0  0  0  0  0  0  0  0  0  0
    1.6678   -1.4850    1.4719 H   0  0  0  0  0  0  0  0  0  0  0  0
   -2.1001    2.4387   -1.0322 H   0  0  0  0  0  0  0  0  0  0  0  0
  1  2  1  0
  2  3  2  0
  3  4  1  0
  4  5  2  0
  5  6  1  0
  6  7  2  0
  7  8  1  0
  8  9  2  0
  9 10  1  0
  9 11  1  0
 11 12  2  0
  5 13  1  0
 13 14  2  0
 14  2  1  0
 12  6  1  0
  1 15  1  0
  1 16  1  0
  1 17  1  0
  3 18  1  0
  4 19  1  0
  7 20  1  0
  8 21  1  0
 11 22  1  0
 12 23  1  0
 14 24  1  0
M  END
$$$$

     RDKit          3D

 24 25  0  0  0  0  0  0  0  0999 V2000
    0.7413   -0.5968   -4.2993 C   0  0  0  0  0  0  0  0  0  0  0  0
    0.4761   -0.3481   -2.8528 C   0  0  0  0  0  0  0  0  0  0  0  0
    0.2559    0.9289   -2.3299 C   0  0  0  0  0  0  0  0  0  0  0  0
    0.0198    1.0982   -0.9831 C   0  0  0  0  0  0  0  0  0  0  0  0
    0.0148   -0.0187   -0.1411 C   0  0  0  0  0  0  0  0  0  0  0  0
   -0.2146    0.0965    1.3286 C   0  0  0  0  0  0  0  0  0  0  0  0
   -0.5308   -1.0448    2.0758 C   0  0  0  0  0  0  0  0  0  0  0  0
   -0.7584   -0.9683    3.4442 C   0  0  0  0  0  0  0  0  0  0  0  0
   -0.6629    0.2608    4.0780 C   0  0  0  0  0  0  0  0  0  0  0  0
   -0.9488    0.3614    5.7957 Cl  0  0  0  0  0  0  0  0  0  0  0  0
   -0.3450    1.4058    3.3748 C   0  0  0  0  0  0  0  0  0  0  0  0
   -0.1145    1.3188    2.0066 C   0  0  0  0  0  0  0  0  0  0  0  0
    0.2172   -1.2487   -0.6334 N   0  0  0  0  0  0  0  0  0  0  0  0
    0.4358   -1.4026   -1.9261 C   0  0  0  0  0  0  0  0  0  0  0  0
    1.7370   -1.0130   -4.4429 H   0  0  0  0  0  0  0  0  0  0  0  0
    0.0307   -1.3152   -4.7043 H   0  0  0  0  0  0  0  0  0  0  0  0
    0.6700    0.3229   -4.8822 H   0  0  0  0  0  0  0  0  0  0  0  0
    0.2701    1.7848   -2.9860 H   0  0  0  0  0  0  0  0  0  0  0  0
   -0.1725    2.0821   -0.5801 H   0  0  0  0  0  0  0  0  0  0  0  0
   -0.6036   -2.0008    1.5761 H   0  0  0  0  0  0  0  0  0  0  0  0
   -1.0041   -1.8588    4.0080 H   0  0  0  0  0  0  0  0  0  0  0  0
   -0.2683    2.3608    3.8717 H   0  0  0  0  0  0  0  0  0  0  0  0
    0.1596    2.2165    1.4723 H   0  0  0  0  0  0  0  0  0  0  0  0
    0.5951   -2.4217   -2.2706 H   0  0  0  0  0  0  0  0  0  0  0  0
  1  2  1  0
  2  3  2  0
  3  4  1  0
  4  5  2  0
  5  6  1  0
  6  7  2  0
  7  8  1  0
  8  9  2  0
  9 10  1  0
  9 11  1  0
 11 12  2  0
  5 13  1  0
 13 14  2  0
 14  2  1  0
 12  6  1  0
  1 15  1  0
  1 16  1  0
  1 17  1  0
  3 18  1  0
  4 19  1  0
  7 20  1  0
  8 21  1  0
 11 22  1  0
 12 23  1  0
 14 24  1  0
M  END
$$$$

     RDKit          3D

 24 25  0  0  0  0  0  0  0  0999 V2000
   -1.0568    1.8426   -3.8536 C   0  0  0  0  0  0  0  0  0  0  0  0
   -0.7321    1.2232   -2.5358 C   0  0  0  0  0  0  0  0  0  0  0  0
   -1.7204    0.8464   -1.6196 C   0  0  0  0  0  0  0  0  0  0  0  0
   -1.3714    0.2690   -0.4202 C   0  0  0  0  0  0  0  0  0  0  0  0
   -0.0193    0.0671   -0.1252 C   0  0  0  0  0  0  0  0  0  0  0  0
    0.4189   -0.5456    1.1596 C   0  0  0  0  0  0  0  0  0  0  0  0
    1.6247   -1.2499    1.2215 C   0  0  0  0  0  0  0  0  0  0  0  0
    2.0463   -1.8435    2.4037 C   0  0  0  0  0  0  0  0  0  0  0  0
    1.2613   -1.7237    3.5403 C   0  0  0  0  0  0  0  0  0  0  0  0
    1.7830   -2.4793    5.0228 Cl  0  0  0  0  0  0  0  0  0  0  0  0
    0.0732   -1.0199    3.5197 C   0  0  0  0  0  0  0  0  0  0  0  0
   -0.3417   -0.4314    2.3309 C   0  0  0  0  0  0  0  0  0  0  0  0
    0.9355    0.4092   -0.9978 N   0  0  0  0  0  0  0  0  0  0  0  0
    0.5918    0.9631   -2.1480 C   0  0  0  0  0  0  0  0  0  0  0  0
   -1.0664    1.0936   -4.6409 H   0  0  0  0  0  0  0  0  0  0  0  0
   -2.0450    2.3067   -3.8367 H   0  0  0  0  0  0  0  0  0  0  0  0
   -0.3222    2.5991   -4.1304 H   0  0  0  0  0  0  0  0  0  0  0  0
   -2.7618    1.0038   -1.8627 H   0  0  0  0  0  0  0  0  0  0  0  0
   -2.1273   -0.0410    0.2888 H   0  0  0  0  0  0  0  0  0  0  0  0
    2.2381   -1.3330    0.3323 H   0  0  0  0  0  0  0  0  0  0  0  0
    2.9781   -2.3921    2.4367 H   0  0  0  0  0  0  0  0  0  0  0  0
   -0.5285   -0.9223    4.4112 H   0  0  0  0  0  0  0  0  0  0  0  0
   -1.2642    0.1321    2.3226 H   0  0  0  0  0  0  0  0  0  0  0  0
    1.4064    1.2259   -2.8193 H   0  0  0  0  0  0  0  0  0  0  0  0
  1  2  1  0
  2  3  2  0
  3  4  1  0
  4  5  2  0
  5  6  1  0
  6  7  2  0
  7  8  1  0
  8  9  2  0
  9 10  1  0
  9 11  1  0
 11 12  2  0
  5 13  1  0
 13 14  2  0
 14  2  1  0
 12  6  1  0
  1 15  1  0
  1 16  1  0
  1 17  1  0
  3 18  1  0
  4 19  1  0
  7 20  1  0
  8 21  1  0
 11 22  1  0
 12 23  1  0
 14 24  1  0
M  END
$$$$

     RDKit          3D

 24 25  0  0  0  0  0  0  0  0999 V2000
   -1.5700   -1.3147    3.8938 C   0  0  0  0  0  0  0  0  0  0  0  0
   -1.0597   -0.8971    2.5552 C   0  0  0  0  0  0  0  0  0  0  0  0
   -1.1069   -1.7321    1.4343 C   0  0  0  0  0  0  0  0  0  0  0  0
   -0.6140   -1.2999    0.2237 C   0  0  0  0  0  0  0  0  0  0  0  0
   -0.0617   -0.0202    0.1299 C   0  0  0  0  0  0  0  0  0  0  0  0
    0.5084    0.4882   -1.1479 C   0  0  0  0  0  0  0  0  0  0  0  0
    0.5311    1.8611   -1.4090 C   0  0  0  0  0  0  0  0  0  0  0  0
    1.0528    2.3537   -2.5983 C   0  0  0  0  0  0  0  0  0  0  0  0
    1.5685    1.4662   -3.5314 C   0  0  0  0  0  0  0  0  0  0  0  0
    2.2205    2.0853   -5.0273 Cl  0  0  0  0  0  0  0  0  0  0  0  0
    1.5728    0.1038   -3.3010 C   0  0  0  0  0  0  0  0  0  0  0  0
    1.0413   -0.3799   -2.1107 C   0  0  0  0  0  0  0  0  0  0  0  0
   -0.0312    0.7997    1.1874 N   0  0  0  0  0  0  0  0  0  0  0  0
   -0.5063    0.3761    2.3464 C   0  0  0  0  0  0  0  0  0  0  0  0
   -0.8759   -1.0232    4.6839 H   0  0  0  0  0  0  0  0  0  0  0  0
   -2.5250   -0.8410    4.1098 H   0  0  0  0  0  0  0  0  0  0  0  0
   -1.7203   -2.3956    3.9389 H   0  0  0  0  0  0  0  0  0  0  0  0
   -1.5368   -2.7190    1.5203 H   0  0  0  0  0  0  0  0  0  0  0  0
   -0.6643   -1.9277   -0.6550 H   0  0  0  0  0  0  0  0  0  0  0  0
    0.1293    2.5484   -0.6739 H   0  0  0  0  0  0  0  0  0  0  0  0
    1.0552    3.4183   -2.7927 H   0  0  0  0  0  0  0  0  0  0  0  0
    1.9834   -0.5826   -4.0277 H   0  0  0  0  0  0  0  0  0  0  0  0
    1.0601   -1.4450   -1.9259 H   0  0  0  0  0  0  0  0  0  0  0  0
   -0.4514    1.0773    3.1772 H   0  0  0  0  0  0  0  0  0  0  0  0
  1  2  1  0
  2  3  2  0
  3  4  1  0
  4  5  2  0
  5  6  1  0
  6  7  2  0
  7  8  1  0
  8  9  2  0
  9 10  1  0
  9 11  1  0
 11 12  2  0
  5 13  1  0
 13 14  2  0
 14  2  1  0
 12  6  1  0
  1 15  1  0
  1 16  1  0
  1 17  1  0
  3 18  1  0
  4 19  1  0
  7 20  1  0
  8 21  1  0
 11 22  1  0
 12 23  1  0
 14 24  1  0
M  END
$$$$

     RDKit          3D

 24 25  0  0  0  0  0  0  0  0999 V2000
   -2.7669   -2.5300   -2.3038 C   0  0  0  0  0  0  0  0  0  0  0  0
   -1.8338   -1.6892   -1.5006 C   0  0  0  0  0  0  0  0  0  0  0  0
   -1.6005   -1.9258   -0.1407 C   0  0  0  0  0  0  0  0  0  0  0  0
   -0.7349   -1.1244    0.5653 C   0  0  0  0  0  0  0  0  0  0  0  0
   -0.0836   -0.0743   -0.0917 C   0  0  0  0  0  0  0  0  0  0  0  0
    0.8611    0.8286    0.6242 C   0  0  0  0  0  0  0  0  0  0  0  0
    1.8541    1.5091   -0.0883 C   0  0  0  0  0  0  0  0  0  0  0  0
    2.7519    2.3496    0.5593 C   0  0  0  0  0  0  0  0  0  0  0  0
    2.6476    2.5222    1.9306 C   0  0  0  0  0  0  0  0  0  0  0  0
    3.7678    3.5839    2.7455 Cl  0  0  0  0  0  0  0  0  0  0  0  0
    1.6712    1.8764    2.6635 C   0  0  0  0  0  0  0  0  0  0  0  0
    0.7811    1.0327    2.0083 C   0  0  0  0  0  0  0  0  0  0  0  0
   -0.2818    0.1519   -1.3949 N   0  0  0  0  0  0  0  0  0  0  0  0
   -1.1259   -0.6172   -2.0640 C   0  0  0  0  0  0  0  0  0  0  0  0
   -2.3684   -3.5329   -2.4274 H   0  0  0  0  0  0  0  0  0  0  0  0
   -3.7252   -2.6357   -1.7940 H   0  0  0  0  0  0  0  0  0  0  0  0
   -2.9458   -2.1016   -3.2925 H   0  0  0  0  0  0  0  0  0  0  0  0
   -2.1057   -2.7466    0.3503 H   0  0  0  0  0  0  0  0  0  0  0  0
   -0.5420   -1.3064    1.6130 H   0  0  0  0  0  0  0  0  0  0  0  0
    1.9211    1.3787   -1.1618 H   0  0  0  0  0  0  0  0  0  0  0  0
    3.5217    2.8642   -0.0011 H   0  0  0  0  0  0  0  0  0  0  0  0
    1.5890    2.0233    3.7310 H   0  0  0  0  0  0  0  0  0  0  0  0
    0.0098    0.5443    2.5855 H   0  0  0  0  0  0  0  0  0  0  0  0
   -1.2618   -0.3808   -3.1157 H   0  0  0  0  0  0  0  0  0  0  0  0
  1  2  1  0
  2  3  2  0
  3  4  1  0
  4  5  2  0
  5  6  1  0
  6  7  2  0
  7  8  1  0
  8  9  2  0
  9 10  1  0
  9 11  1  0
 11 12  2  0
  5 13  1  0
 13 14  2  0
 14  2  1  0
 12  6  1  0
  1 15  1  0
  1 16  1  0
  1 17  1  0
  3 18  1  0
  4 19  1  0
  7 20  1  0
  8 21  1  0
 11 22  1  0
 12 23  1  0
 14 24  1  0
M  END
$$$$

     RDKit          3D

 24 25  0  0  0  0  0  0  0  0999 V2000
   -3.1593   -0.4631    3.0317 C   0  0  0  0  0  0  0  0  0  0  0  0
   -2.1057   -0.2757    1.9926 C   0  0  0  0  0  0  0  0  0  0  0  0
   -2.1739    0.7351    1.0271 C   0  0  0  0  0  0  0  0  0  0  0  0
   -1.1705    0.8750    0.0955 C   0  0  0  0  0  0  0  0  0  0  0  0
   -0.0847   -0.0071    0.1190 C   0  0  0  0  0  0  0  0  0  0  0  0
    1.0128    0.0705   -0.8879 C   0  0  0  0  0  0  0  0  0  0  0  0
    2.2475   -0.5330   -0.6240 C   0  0  0  0  0  0  0  0  0  0  0  0
    3.2877   -0.4719   -1.5416 C   0  0  0  0  0  0  0  0  0  0  0  0
    3.0923    0.1920   -2.7423 C   0  0  0  0  0  0  0  0  0  0  0  0
    4.3987    0.2759   -3.8949 Cl  0  0  0  0  0  0  0  0  0  0  0  0
    1.8842    0.7880   -3.0429 C   0  0  0  0  0  0  0  0  0  0  0  0
    0.8489    0.7220   -2.1184 C   0  0  0  0  0  0  0  0  0  0  0  0
    0.0055   -0.9608    1.0540 N   0  0  0  0  0  0  0  0  0  0  0  0
   -0.9671   -1.0931    1.9419 C   0  0  0  0  0  0  0  0  0  0  0  0
   -3.0106    0.2316    3.8527 H   0  0  0  0  0  0  0  0  0  0  0  0
   -4.1511   -0.2654    2.6251 H   0  0  0  0  0  0  0  0  0  0  0  0
   -3.1434   -1.4765    3.4377 H   0  0  0  0  0  0  0  0  0  0  0  0
   -3.0200    1.4072    1.0182 H   0  0  0  0  0  0  0  0  0  0  0  0
   -1.2090    1.6654   -0.6418 H   0  0  0  0  0  0  0  0  0  0  0  0
    2.3946   -1.0533    0.3125 H   0  0  0  0  0  0  0  0  0  0  0  0
    4.2392   -0.9373   -1.3224 H   0  0  0  0  0  0  0  0  0  0  0  0
    1.7349    1.2990   -3.9825 H   0  0  0  0  0  0  0  0  0  0  0  0
   -0.0984    1.1703   -2.3754 H   0  0  0  0  0  0  0  0  0  0  0  0
   -0.8525   -1.8948    2.6663 H   0  0  0  0  0  0  0  0  0  0  0  0
  1  2  1  0
  2  3  2  0
  3  4  1  0
  4  5  2  0
  5  6  1  0
  6  7  2  0
  7  8  1  0
  8  9  2  0
  9 10  1  0
  9 11  1  0
 11 12  2  0
  5 13  1  0
 13 14  2  0
 14  2  1  0
 12  6  1  0
  1 15  1  0
  1 16  1  0
  1 17  1  0
  3 18  1  0
  4 19  1  0
  7 20  1  0
  8 21  1  0
 11 22  1  0
 12 23  1  0
 14 24  1  0
M  END
$$$$

     RDKit          3D

 24 25  0  0  0  0  0  0  0  0999 V2000
    1.1444   -3.8890    1.7191 C   0  0  0  0  0  0  0  0  0  0  0  0
    0.7202   -2.5863    1.1310 C   0  0  0  0  0  0  0  0  0  0  0  0
   -0.6096   -2.1528    1.1448 C   0  0  0  0  0  0  0  0  0  0  0  0
   -0.9508   -0.9326    0.6064 C   0  0  0  0  0  0  0  0  0  0  0  0
    0.0482   -0.1273    0.0498 C   0  0  0  0  0  0  0  0  0  0  0  0
   -0.2574    1.2082   -0.5414 C   0  0  0  0  0  0  0  0  0  0  0  0
    0.6339    1.7933   -1.4482 C   0  0  0  0  0  0  0  0  0  0  0  0
    0.3681    3.0325   -2.0178 C   0  0  0  0  0  0  0  0  0  0  0  0
   -0.7988    3.6981   -1.6783 C   0  0  0  0  0  0  0  0  0  0  0  0
   -1.1385    5.2515   -2.3940 Cl  0  0  0  0  0  0  0  0  0  0  0  0
   -1.6972    3.1559   -0.7792 C   0  0  0  0  0  0  0  0  0  0  0  0
   -1.4207    1.9181   -0.2100 C   0  0  0  0  0  0  0  0  0  0  0  0
    1.3220   -0.5364    0.0183 N   0  0  0  0  0  0  0  0  0  0  0  0
    1.6413   -1.7093    0.5410 C   0  0  0  0  0  0  0  0  0  0  0  0
    1.9711   -4.3298    1.1600 H   0  0  0  0  0  0  0  0  0  0  0  0
    0.3168   -4.5993    1.7318 H   0  0  0  0  0  0  0  0  0  0  0  0
    1.4746   -3.7564    2.7465 H   0  0  0  0  0  0  0  0  0  0  0  0
   -1.3711   -2.7877    1.5711 H   0  0  0  0  0  0  0  0  0  0  0  0
   -1.9776   -0.6002    0.5943 H   0  0  0  0  0  0  0  0  0  0  0  0
    1.5497    1.2776   -1.7037 H   0  0  0  0  0  0  0  0  0  0  0  0
    1.0631    3.4666   -2.7247 H   0  0  0  0  0  0  0  0  0  0  0  0
   -2.6026    3.6814   -0.5135 H   0  0  0  0  0  0  0  0  0  0  0  0
   -2.1189    1.5132    0.5082 H   0  0  0  0  0  0  0  0  0  0  0  0
    2.6898   -1.9893    0.4885 H   0  0  0  0  0  0  0  0  0  0  0  0
  1  2  1  0
  2  3  2  0
  3  4  1  0
  4  5  2  0
  5  6  1  0
  6  7  2  0
  7  8  1  0
  8  9  2  0
  9 10  1  0
  9 11  1  0
 11 12  2  0
  5 13  1  0
 13 14  2  0
 14  2  1  0
 12  6  1  0
  1 15  1  0
  1 16  1  0
  1 17  1  0
  3 18  1  0
  4 19  1  0
  7 20  1  0
  8 21  1  0
 11 22  1  0
 12 23  1  0
 14 24  1  0
M  END
$$$$

     RDKit          3D

 24 25  0  0  0  0  0  0  0  0999 V2000
    0.8383    0.7660   -4.2544 C   0  0  0  0  0  0  0  0  0  0  0  0
    0.6007    0.4847   -2.8085 C   0  0  0  0  0  0  0  0  0  0  0  0
    1.6273    0.1561   -1.9185 C   0  0  0  0  0  0  0  0  0  0  0  0
    1.3477   -0.0747   -0.5888 C   0  0  0  0  0  0  0  0  0  0  0  0
    0.0273    0.0209   -0.1381 C   0  0  0  0  0  0  0  0  0  0  0  0
   -0.3426   -0.2227    1.2855 C   0  0  0  0  0  0  0  0  0  0  0  0
   -1.5948    0.1880    1.7585 C   0  0  0  0  0  0  0  0  0  0  0  0
   -1.9641   -0.0153    3.0816 C   0  0  0  0  0  0  0  0  0  0  0  0
   -1.0805   -0.6502    3.9419 C   0  0  0  0  0  0  0  0  0  0  0  0
   -1.5453   -0.9126    5.6022 Cl  0  0  0  0  0  0  0  0  0  0  0  0
    0.1587   -1.0789    3.5082 C   0  0  0  0  0  0  0  0  0  0  0  0
    0.5221   -0.8640    2.1843 C   0  0  0  0  0  0  0  0  0  0  0  0
   -0.9637    0.3431   -0.9805 N   0  0  0  0  0  0  0  0  0  0  0  0
   -0.6866    0.5586   -2.2543 C   0  0  0  0  0  0  0  0  0  0  0  0
    0.0939    0.2708   -4.8786 H   0  0  0  0  0  0  0  0  0  0  0  0
    0.7674    1.8321   -4.4532 H   0  0  0  0  0  0  0  0  0  0  0  0
    1.8314    0.4364   -4.5661 H   0  0  0  0  0  0  0  0  0  0  0  0
    2.6425    0.0863   -2.2762 H   0  0  0  0  0  0  0  0  0  0  0  0
    2.1394   -0.3142    0.1040 H   0  0  0  0  0  0  0  0  0  0  0  0
   -2.2847    0.6742    1.0825 H   0  0  0  0  0  0  0  0  0  0  0  0
   -2.9330    0.3129    3.4347 H   0  0  0  0  0  0  0  0  0  0  0  0
    0.8422   -1.5770    4.1802 H   0  0  0  0  0  0  0  0  0  0  0  0
    1.4852   -1.2219    1.8522 H   0  0  0  0  0  0  0  0  0  0  0  0
   -1.5288    0.8013   -2.8987 H   0  0  0  0  0  0  0  0  0  0  0  0
  1  2  1  0
  2  3  2  0
  3  4  1  0
  4  5  2  0
  5  6  1  0
  6  7  2  0
  7  8  1  0
  8  9  2  0
  9 10  1  0
  9 11  1  0
 11 12  2  0
  5 13  1  0
 13 14  2  0
 14  2  1  0
 12  6  1  0
  1 15  1  0
  1 16  1  0
  1 17  1  0
  3 18  1  0
  4 19  1  0
  7 20  1  0
  8 21  1  0
 11 22  1  0
 12 23  1  0
 14 24  1  0
M  END
$$$$

     RDKit          3D

 24 25  0  0  0  0  0  0  0  0999 V2000
    3.5829    0.8203    2.4296 C   0  0  0  0  0  0  0  0  0  0  0  0
    2.3565    0.5836    1.6125 C   0  0  0  0  0  0  0  0  0  0  0  0
    1.6529    1.6221    0.9924 C   0  0  0  0  0  0  0  0  0  0  0  0
    0.5360    1.3509    0.2340 C   0  0  0  0  0  0  0  0  0  0  0  0
    0.1074    0.0270    0.0922 C   0  0  0  0  0  0  0  0  0  0  0  0
   -1.0970   -0.3338   -0.7120 C   0  0  0  0  0  0  0  0  0  0  0  0
   -1.3692   -1.6808   -0.9832 C   0  0  0  0  0  0  0  0  0  0  0  0
   -2.4620   -2.0509   -1.7554 C   0  0  0  0  0  0  0  0  0  0  0  0
   -3.3077   -1.0693   -2.2498 C   0  0  0  0  0  0  0  0  0  0  0  0
   -4.6767   -1.5314   -3.2300 Cl  0  0  0  0  0  0  0  0  0  0  0  0
   -3.0834    0.2662   -1.9848 C   0  0  0  0  0  0  0  0  0  0  0  0
   -1.9837    0.6289   -1.2180 C   0  0  0  0  0  0  0  0  0  0  0  0
    0.7782   -0.9776    0.6738 N   0  0  0  0  0  0  0  0  0  0  0  0
    1.8516   -0.7075    1.3990 C   0  0  0  0  0  0  0  0  0  0  0  0
    3.5659    1.8105    2.8859 H   0  0  0  0  0  0  0  0  0  0  0  0
    3.6869    0.0781    3.2218 H   0  0  0  0  0  0  0  0  0  0  0  0
    4.4724    0.7674    1.8085 H   0  0  0  0  0  0  0  0  0  0  0  0
    1.9893    2.6404    1.1145 H   0  0  0  0  0  0  0  0  0  0  0  0
   -0.0047    2.1490   -0.2530 H   0  0  0  0  0  0  0  0  0  0  0  0
   -0.7160   -2.4455   -0.5891 H   0  0  0  0  0  0  0  0  0  0  0  0
   -2.6541   -3.0942   -1.9661 H   0  0  0  0  0  0  0  0  0  0  0  0
   -3.7498    1.0257   -2.3661 H   0  0  0  0  0  0  0  0  0  0  0  0
   -1.8333    1.6778   -1.0059 H   0  0  0  0  0  0  0  0  0  0  0  0
    2.3573   -1.5571    1.8494 H   0  0  0  0  0  0  0  0  0  0  0  0
  1  2  1  0
  2  3  2  0
  3  4  1  0
  4  5  2  0
  5  6  1  0
  6  7  2  0
  7  8  1  0
  8  9  2  0
  9 10  1  0
  9 11  1  0
 11 12  2  0
  5 13  1  0
 13 14  2  0
 14  2  1  0
 12  6  1  0
  1 15  1  0
  1 16  1  0
  1 17  1  0
  3 18  1  0
  4 19  1  0
  7 20  1  0
  8 21  1  0
 11 22  1  0
 12 23  1  0
 14 24  1  0
M  END
$$$$

     RDKit          3D

 24 25  0  0  0  0  0  0  0  0999 V2000
    2.4592   -2.6596    2.5027 C   0  0  0  0  0  0  0  0  0  0  0  0
    1.6305   -1.7226    1.6900 C   0  0  0  0  0  0  0  0  0  0  0  0
    1.7354   -0.3328    1.7922 C   0  0  0  0  0  0  0  0  0  0  0  0
    0.9574    0.4849    1.0022 C   0  0  0  0  0  0  0  0  0  0  0  0
    0.0663   -0.0902    0.0911 C   0  0  0  0  0  0  0  0  0  0  0  0
   -0.7878    0.7389   -0.8071 C   0  0  0  0  0  0  0  0  0  0  0  0
   -1.9027    0.1698   -1.4346 C   0  0  0  0  0  0  0  0  0  0  0  0
   -2.7177    0.9216   -2.2721 C   0  0  0  0  0  0  0  0  0  0  0  0
   -2.4169    2.2575   -2.4885 C   0  0  0  0  0  0  0  0  0  0  0  0
   -3.4346    3.2055   -3.5413 Cl  0  0  0  0  0  0  0  0  0  0  0  0
   -1.3196    2.8497   -1.8931 C   0  0  0  0  0  0  0  0  0  0  0  0
   -0.5081    2.0889   -1.0596 C   0  0  0  0  0  0  0  0  0  0  0  0
   -0.0576   -1.4215   -0.0045 N   0  0  0  0  0  0  0  0  0  0  0  0
    0.6961   -2.1971    0.7554 C   0  0  0  0  0  0  0  0  0  0  0  0
    2.9783   -2.1340    3.3080 H   0  0  0  0  0  0  0  0  0  0  0  0
    1.8426   -3.4436    2.9456 H   0  0  0  0  0  0  0  0  0  0  0  0
    3.2064   -3.1498    1.8840 H   0  0  0  0  0  0  0  0  0  0  0  0
    2.4259    0.0996    2.4992 H   0  0  0  0  0  0  0  0  0  0  0  0
    1.0224    1.5593    1.0896 H   0  0  0  0  0  0  0  0  0  0  0  0
   -2.1306   -0.8732   -1.2660 H   0  0  0  0  0  0  0  0  0  0  0  0
   -3.5808    0.4703   -2.7442 H   0  0  0  0  0  0  0  0  0  0  0  0
   -1.0851    3.8892   -2.0702 H   0  0  0  0  0  0  0  0  0  0  0  0
    0.3544    2.5588   -0.6113 H   0  0  0  0  0  0  0  0  0  0  0  0
    0.5666   -3.2697    0.6323 H   0  0  0  0  0  0  0  0  0  0  0  0
  1  2  1  0
  2  3  2  0
  3  4  1  0
  4  5  2  0
  5  6  1  0
  6  7  2  0
  7  8  1  0
  8  9  2  0
  9 10  1  0
  9 11  1  0
 11 12  2  0
  5 13  1  0
 13 14  2  0
 14  2  1  0
 12  6  1  0
  1 15  1  0
  1 16  1  0
  1 17  1  0
  3 18  1  0
  4 19  1  0
  7 20  1  0
  8 21  1  0
 11 22  1  0
 12 23  1  0
 14 24  1  0
M  END
$$$$

     RDKit          3D

 24 25  0  0  0  0  0  0  0  0999 V2000
    2.7631   -2.7249   -2.0854 C   0  0  0  0  0  0  0  0  0  0  0  0
    1.8165   -1.8403   -1.3453 C   0  0  0  0  0  0  0  0  0  0  0  0
    1.5365   -2.0014    0.0144 C   0  0  0  0  0  0  0  0  0  0  0  0
    0.6709   -1.1408    0.6538 C   0  0  0  0  0  0  0  0  0  0  0  0
    0.0798   -0.0984   -0.0680 C   0  0  0  0  0  0  0  0  0  0  0  0
   -0.8569    0.8773    0.5647 C   0  0  0  0  0  0  0  0  0  0  0  0
   -1.5276    1.8151   -0.2315 C   0  0  0  0  0  0  0  0  0  0  0  0
   -2.4001    2.7394    0.3277 C   0  0  0  0  0  0  0  0  0  0  0  0
   -2.6106    2.7307    1.6986 C   0  0  0  0  0  0  0  0  0  0  0  0
   -3.7039    3.8900    2.4063 Cl  0  0  0  0  0  0  0  0  0  0  0  0
   -1.9692    1.8203    2.5139 C   0  0  0  0  0  0  0  0  0  0  0  0
   -1.0970    0.8996    1.9461 C   0  0  0  0  0  0  0  0  0  0  0  0
    0.3350    0.0619   -1.3760 N   0  0  0  0  0  0  0  0  0  0  0  0
    1.1634   -0.7721   -1.9806 C   0  0  0  0  0  0  0  0  0  0  0  0
    2.9905   -3.6289   -1.5164 H   0  0  0  0  0  0  0  0  0  0  0  0
    3.7004   -2.2089   -2.2746 H   0  0  0  0  0  0  0  0  0  0  0  0
    2.3545   -3.0187   -3.0529 H   0  0  0  0  0  0  0  0  0  0  0  0
    1.9966   -2.8073    0.5635 H   0  0  0  0  0  0  0  0  0  0  0  0
    0.4453   -1.2759    1.7021 H   0  0  0  0  0  0  0  0  0  0  0  0
   -1.3637    1.8208   -1.2986 H   0  0  0  0  0  0  0  0  0  0  0  0
   -2.9132    3.4550   -0.2997 H   0  0  0  0  0  0  0  0  0  0  0  0
   -2.1339    1.8170    3.5809 H   0  0  0  0  0  0  0  0  0  0  0  0
   -0.6052    0.1940    2.5988 H   0  0  0  0  0  0  0  0  0  0  0  0
    1.3287   -0.6033   -3.0419 H   0  0  0  0  0  0  0  0  0  0  0  0
  1  2  1  0
  2  3  2  0
  3  4  1  0
  4  5  2  0
  5  6  1  0
  6  7  2  0
  7  8  1  0
  8  9  2  0
  9 10  1  0
  9 11  1  0
 11 12  2  0
  5 13  1  0
 13 14  2  0
 14  2  1  0
 12  6  1  0
  1 15  1  0
  1 16  1  0
  1 17  1  0
  3 18  1  0
  4 19  1  0
  7 20  1  0
  8 21  1  0
 11 22  1  0
 12 23  1  0
 14 24  1  0
M  END
$$$$

     RDKit          3D

 24 25  0  0  0  0  0  0  0  0999 V2000
    2.6395    3.5009   -0.4239 C   0  0  0  0  0  0  0  0  0  0  0  0
    1.7175    2.3378   -0.2797 C   0  0  0  0  0  0  0  0  0  0  0  0
    0.3262    2.4857   -0.3069 C   0  0  0  0  0  0  0  0  0  0  0  0
   -0.4910    1.3857   -0.1801 C   0  0  0  0  0  0  0  0  0  0  0  0
    0.0801    0.1174   -0.0169 C   0  0  0  0  0  0  0  0  0  0  0  0
   -0.7426   -1.1189    0.1399 C   0  0  0  0  0  0  0  0  0  0  0  0
   -0.1059   -2.3622    0.2592 C   0  0  0  0  0  0  0  0  0  0  0  0
   -0.8376   -3.5346    0.3922 C   0  0  0  0  0  0  0  0  0  0  0  0
   -2.2224   -3.4697    0.4181 C   0  0  0  0  0  0  0  0  0  0  0  0
   -3.1443   -4.9421    0.5801 Cl  0  0  0  0  0  0  0  0  0  0  0  0
   -2.8848   -2.2625    0.3150 C   0  0  0  0  0  0  0  0  0  0  0  0
   -2.1453   -1.0945    0.1766 C   0  0  0  0  0  0  0  0  0  0  0  0
    1.4116   -0.0377    0.0051 N   0  0  0  0  0  0  0  0  0  0  0  0
    2.1893    1.0256   -0.1224 C   0  0  0  0  0  0  0  0  0  0  0  0
    2.2828    4.3532    0.1527 H   0  0  0  0  0  0  0  0  0  0  0  0
    3.6517    3.2579   -0.0943 H   0  0  0  0  0  0  0  0  0  0  0  0
    2.6879    3.8246   -1.4596 H   0  0  0  0  0  0  0  0  0  0  0  0
   -0.1029    3.4702   -0.4259 H   0  0  0  0  0  0  0  0  0  0  0  0
   -1.5643    1.4991   -0.2061 H   0  0  0  0  0  0  0  0  0  0  0  0
    0.9732   -2.4124    0.2450 H   0  0  0  0  0  0  0  0  0  0  0  0
   -0.3320   -4.4867    0.4822 H   0  0  0  0  0  0  0  0  0  0  0  0
   -3.9637   -2.2174    0.3395 H   0  0  0  0  0  0  0  0  0  0  0  0
   -2.6807   -0.1597    0.1051 H   0  0  0  0  0  0  0  0  0  0  0  0
    3.2579    0.8404   -0.0949 H   0  0  0  0  0  0  0  0  0  0  0  0
  1  2  1  0
  2  3  2  0
  3  4  1  0
  4  5  2  0
  5  6  1  0
  6  7  2  0
  7  8  1  0
  8  9  2  0
  9 10  1  0
  9 11  1  0
 11 12  2  0
  5 13  1  0
 13 14  2  0
 14  2  1  0
 12  6  1  0
  1 15  1  0
  1 16  1  0
  1 17  1  0
  3 18  1  0
  4 19  1  0
  7 20  1  0
  8 21  1  0
 11 22  1  0
 12 23  1  0
 14 24  1  0
M  END
$$$$
