
     RDKit          3D

 24 25  0  0  0  0  0  0  0  0999 V2000
   -4.1736    1.3490   -0.4464 C   0  0  0  0  0  0  0  0  0  0  0  0
   -2.7473    0.9320   -0.3198 C   0  0  0  0  0  0  0  0  0  0  0  0
   -1.6784    1.8038   -0.5470 C   0  0  0  0  0  0  0  0  0  0  0  0
   -0.3813    1.3673   -0.3954 C   0  0  0  0  0  0  0  0  0  0  0  0
   -0.1434    0.0440   -0.0158 C   0  0  0  0  0  0  0  0  0  0  0  0
    1.2384   -0.4891    0.1560 C   0  0  0  0  0  0  0  0  0  0  0  0
    1.4378   -1.6875    0.8498 C   0  0  0  0  0  0  0  0  0  0  0  0
    2.7142   -2.2065    1.0316 C   0  0  0  0  0  0  0  0  0  0  0  0
    3.8042   -1.5319    0.5070 C   0  0  0  0  0  0  0  0  0  0  0  0
    5.5543   -2.2295    0.7629 Br  0  0  0  0  0  0  0  0  0  0  0  0
    3.6447   -0.3554   -0.1918 C   0  0  0  0  0  0  0  0  0  0  0  0
    2.3665    0.1624   -0.3655 C   0  0  0  0  0  0  0  0  0  0  0  0
   -1.1598   -0.8000    0.2110 N   0  0  0  0  0  0  0  0  0  0  0  0
   -2.4007   -0.3751    0.0583 C   0  0  0  0  0  0  0  0  0  0  0  0
   -4.7312    0.6472   -1.0681 H   0  0  0  0  0  0  0  0  0  0  0  0
   -4.6541    1.3652    0.5289 H   0  0  0  0  0  0  0  0  0  0  0  0
   -4.2587    2.3482   -0.8825 H   0  0  0  0  0  0  0  0  0  0  0  0
   -1.8723    2.8245   -0.8386 H   0  0  0  0  0  0  0  0  0  0  0  0
    0.4494    2.0367   -0.5609 H   0  0  0  0  0  0  0  0  0  0  0  0
    0.5830   -2.2164    1.2531 H   0  0  0  0  0  0  0  0  0  0  0  0
    2.8483   -3.1304    1.5756 H   0  0  0  0  0  0  0  0  0  0  0  0
    4.4924    0.1661   -0.6081 H   0  0  0  0  0  0  0  0  0  0  0  0
    2.2568    1.0790   -0.9322 H   0  0  0  0  0  0  0  0  0  0  0  0
   -3.1891   -1.1035    0.2378 H   0  0  0  0  0  0  0  0  0  0  0  0
  1  2  1  0
  2  3  2  0
  3  4  1  0
  4  5  2  0
  5  6  1  0
  6  7  2  0
  7  8  1  0
  8  9  2  0
  9 10  1  0
  9 11  1  0
 11 12  2  0
  5 13  1  0
 13 14  2  0
 14  2  1  0
 12  6  1  0
  1 15  1  0
  1 16  1  0
  1 17  1  0
  3 18  1  0
  4 19  1  0
  7 20  1  0
  8 21  1  0
 11 22  1  0
 12 23  1  0
 14 24  1  0
M  END
$$$$

     RDKit          3D

 24 25  0  0  0  0  0  0  0  0999 V2000
   -1.3681    2.5201    3.3521 C   0  0  0  0  0  0  0  0  0  0  0  0
   -0.8895    1.6488    2.2397 C   0  0  0  0  0  0  0  0  0  0  0  0
   -0.4070    0.3549    2.4638 C   0  0  0  0  0  0  0  0  0  0  0  0
    0.0198   -0.4188    1.4084 C   0  0  0  0  0  0  0  0  0  0  0  0
   -0.0465    0.0946    0.1088 C   0  0  0  0  0  0  0  0  0  0  0  0
    0.3907   -0.6989   -1.0774 C   0  0  0  0  0  0  0  0  0  0  0  0
    0.5865   -0.0642   -2.3098 C   0  0  0  0  0  0  0  0  0  0  0  0
    1.0010   -0.7789   -3.4273 C   0  0  0  0  0  0  0  0  0  0  0  0
    1.2193   -2.1414   -3.3197 C   0  0  0  0  0  0  0  0  0  0  0  0
    1.7951   -3.1225   -4.8427 Br  0  0  0  0  0  0  0  0  0  0  0  0
    1.0273   -2.8011   -2.1249 C   0  0  0  0  0  0  0  0  0  0  0  0
    0.6122   -2.0806   -1.0101 C   0  0  0  0  0  0  0  0  0  0  0  0
   -0.5079    1.3290   -0.1206 N   0  0  0  0  0  0  0  0  0  0  0  0
   -0.9089    2.0701    0.9004 C   0  0  0  0  0  0  0  0  0  0  0  0
   -0.7317    2.4142    4.2313 H   0  0  0  0  0  0  0  0  0  0  0  0
   -1.3885    3.5715    3.0542 H   0  0  0  0  0  0  0  0  0  0  0  0
   -2.3732    2.2349    3.6540 H   0  0  0  0  0  0  0  0  0  0  0  0
   -0.3661   -0.0316    3.4721 H   0  0  0  0  0  0  0  0  0  0  0  0
    0.4065   -1.4129    1.5815 H   0  0  0  0  0  0  0  0  0  0  0  0
    0.4044    1.0010   -2.3946 H   0  0  0  0  0  0  0  0  0  0  0  0
    1.1527   -0.2718   -4.3692 H   0  0  0  0  0  0  0  0  0  0  0  0
    1.1862   -3.8648   -2.0430 H   0  0  0  0  0  0  0  0  0  0  0  0
    0.4555   -2.6162   -0.0829 H   0  0  0  0  0  0  0  0  0  0  0  0
   -1.2698    3.0645    0.6559 H   0  0  0  0  0  0  0  0  0  0  0  0
  1  2  1  0
  2  3  2  0
  3  4  1  0
  4  5  2  0
  5  6  1  0
  6  7  2  0
  7  8  1  0
  8  9  2  0
  9 10  1  0
  9 11  1  0
 11 12  2  0
  5 13  1  0
 13 14  2  0
 14  2  1  0
 12  6  1  0
  1 15  1  0
  1 16  1  0
  1 17  1  0
  3 18  1  0
  4 19  1  0
  7 20  1  0
  8 21  1  0
 11 22  1  0
 12 23  1  0
 14 24  1  0
M  END
$$$$

     RDKit          3D

 24 25  0  0  0  0  0  0  0  0999 V2000
    2.5875   -0.9465   -3.4423 C   0  0  0  0  0  0  0  0  0  0  0  0
    1.6936   -0.6018   -2.3000 C   0  0  0  0  0  0  0  0  0  0  0  0
    0.3352   -0.3163   -2.4784 C   0  0  0  0  0  0  0  0  0  0  0  0
   -0.4583   -0.0176   -1.3942 C   0  0  0  0  0  0  0  0  0  0  0  0
    0.1007   -0.0206   -0.1124 C   0  0  0  0  0  0  0  0  0  0  0  0
   -0.7164    0.2673    1.1023 C   0  0  0  0  0  0  0  0  0  0  0  0
   -0.0808    0.5916    2.3056 C   0  0  0  0  0  0  0  0  0  0  0  0
   -0.8150    0.8807    3.4491 C   0  0  0  0  0  0  0  0  0  0  0  0
   -2.1974    0.8383    3.3993 C   0  0  0  0  0  0  0  0  0  0  0  0
   -3.2065    1.2464    4.9600 Br  0  0  0  0  0  0  0  0  0  0  0  0
   -2.8584    0.5060    2.2352 C   0  0  0  0  0  0  0  0  0  0  0  0
   -2.1179    0.2191    1.0931 C   0  0  0  0  0  0  0  0  0  0  0  0
    1.4014   -0.2768    0.0705 N   0  0  0  0  0  0  0  0  0  0  0  0
    2.1597   -0.5555   -0.9774 C   0  0  0  0  0  0  0  0  0  0  0  0
    2.3795   -1.9526   -3.7984 H   0  0  0  0  0  0  0  0  0  0  0  0
    3.6423   -0.8981   -3.1575 H   0  0  0  0  0  0  0  0  0  0  0  0
    2.4191   -0.2744   -4.2822 H   0  0  0  0  0  0  0  0  0  0  0  0
   -0.0847   -0.3255   -3.4737 H   0  0  0  0  0  0  0  0  0  0  0  0
   -1.5021    0.2298   -1.5257 H   0  0  0  0  0  0  0  0  0  0  0  0
    1.0008    0.6115    2.3469 H   0  0  0  0  0  0  0  0  0  0  0  0
   -0.3059    1.1373    4.3674 H   0  0  0  0  0  0  0  0  0  0  0  0
   -3.9366    0.4568    2.2007 H   0  0  0  0  0  0  0  0  0  0  0  0
   -2.6490   -0.0480    0.1884 H   0  0  0  0  0  0  0  0  0  0  0  0
    3.2092   -0.7513   -0.7766 H   0  0  0  0  0  0  0  0  0  0  0  0
  1  2  1  0
  2  3  2  0
  3  4  1  0
  4  5  2  0
  5  6  1  0
  6  7  2  0
  7  8  1  0
  8  9  2  0
  9 10  1  0
  9 11  1  0
 11 12  2  0
  5 13  1  0
 13 14  2  0
 14  2  1  0
 12  6  1  0
  1 15  1  0
  1 16  1  0
  1 17  1  0
  3 18  1  0
  4 19  1  0
  7 20  1  0
  8 21  1  0
 11 22  1  0
 12 23  1  0
 14 24  1  0
M  END
$$$$

     RDKit          3D

 24 25  0  0  0  0  0  0  0  0999 V2000
   -2.9700   -2.6749    1.8611 C   0  0  0  0  0  0  0  0  0  0  0  0
   -1.9768   -1.7798    1.1991 C   0  0  0  0  0  0  0  0  0  0  0  0
   -1.8197   -1.7340   -0.1899 C   0  0  0  0  0  0  0  0  0  0  0  0
   -0.8976   -0.8840   -0.7564 C   0  0  0  0  0  0  0  0  0  0  0  0
   -0.1122   -0.0742    0.0696 C   0  0  0  0  0  0  0  0  0  0  0  0
    0.9234    0.8450   -0.4837 C   0  0  0  0  0  0  0  0  0  0  0  0
    1.4393    1.8758    0.3101 C   0  0  0  0  0  0  0  0  0  0  0  0
    2.4106    2.7412   -0.1784 C   0  0  0  0  0  0  0  0  0  0  0  0
    2.8766    2.5762   -1.4702 C   0  0  0  0  0  0  0  0  0  0  0  0
    4.2058    3.7584   -2.1411 Br  0  0  0  0  0  0  0  0  0  0  0  0
    2.3931    1.5720   -2.2810 C   0  0  0  0  0  0  0  0  0  0  0  0
    1.4201    0.7100   -1.7875 C   0  0  0  0  0  0  0  0  0  0  0  0
   -0.2658   -0.0972    1.3997 N   0  0  0  0  0  0  0  0  0  0  0  0
   -1.1545   -0.9141    1.9366 C   0  0  0  0  0  0  0  0  0  0  0  0
   -2.6458   -2.9562    2.8660 H   0  0  0  0  0  0  0  0  0  0  0  0
   -3.9337   -2.1830    1.9452 H   0  0  0  0  0  0  0  0  0  0  0  0
   -3.1249   -3.5857    1.2764 H   0  0  0  0  0  0  0  0  0  0  0  0
   -2.4257   -2.3701   -0.8180 H   0  0  0  0  0  0  0  0  0  0  0  0
   -0.7884   -0.8267   -1.8289 H   0  0  0  0  0  0  0  0  0  0  0  0
    1.0699    2.0033    1.3202 H   0  0  0  0  0  0  0  0  0  0  0  0
    2.7938    3.5339    0.4484 H   0  0  0  0  0  0  0  0  0  0  0  0
    2.7575    1.4445   -3.2880 H   0  0  0  0  0  0  0  0  0  0  0  0
    1.0588   -0.0826   -2.4306 H   0  0  0  0  0  0  0  0  0  0  0  0
   -1.2337   -0.8978    3.0213 H   0  0  0  0  0  0  0  0  0  0  0  0
  1  2  1  0
  2  3  2  0
  3  4  1  0
  4  5  2  0
  5  6  1  0
  6  7  2  0
  7  8  1  0
  8  9  2  0
  9 10  1  0
  9 11  1  0
 11 12  2  0
  5 13  1  0
 13 14  2  0
 14  2  1  0
 12  6  1  0
  1 15  1  0
  1 16  1  0
  1 17  1  0
  3 18  1  0
  4 19  1  0
  7 20  1  0
  8 21  1  0
 11 22  1  0
 12 23  1  0
 14 24  1  0
M  END
$$$$

     RDKit          3D

 24 25  0  0  0  0  0  0  0  0999 V2000
   -0.0216    0.6503   -4.3578 C   0  0  0  0  0  0  0  0  0  0  0  0
   -0.0638    0.4454   -2.8821 C   0  0  0  0  0  0  0  0  0  0  0  0
   -1.1706   -0.1034   -2.2276 C   0  0  0  0  0  0  0  0  0  0  0  0
   -1.1439   -0.3021   -0.8661 C   0  0  0  0  0  0  0  0  0  0  0  0
    0.0059    0.0348   -0.1478 C   0  0  0  0  0  0  0  0  0  0  0  0
    0.1018   -0.1790    1.3247 C   0  0  0  0  0  0  0  0  0  0  0  0
    1.0211    0.5579    2.0773 C   0  0  0  0  0  0  0  0  0  0  0  0
    1.1180    0.3914    3.4540 C   0  0  0  0  0  0  0  0  0  0  0  0
    0.2937   -0.5207    4.0882 C   0  0  0  0  0  0  0  0  0  0  0  0
    0.4117   -0.7305    5.9733 Br  0  0  0  0  0  0  0  0  0  0  0  0
   -0.6165   -1.2749    3.3752 C   0  0  0  0  0  0  0  0  0  0  0  0
   -0.7042   -1.1084    1.9966 C   0  0  0  0  0  0  0  0  0  0  0  0
    1.0661    0.5781   -0.7586 N   0  0  0  0  0  0  0  0  0  0  0  0
    1.0301    0.7728   -2.0656 C   0  0  0  0  0  0  0  0  0  0  0  0
   -1.0271    0.7284   -4.7751 H   0  0  0  0  0  0  0  0  0  0  0  0
    0.4733   -0.1883   -4.8420 H   0  0  0  0  0  0  0  0  0  0  0  0
    0.5363    1.5536   -4.6157 H   0  0  0  0  0  0  0  0  0  0  0  0
   -2.0539   -0.3608   -2.7929 H   0  0  0  0  0  0  0  0  0  0  0  0
   -2.0075   -0.6979   -0.3512 H   0  0  0  0  0  0  0  0  0  0  0  0
    1.6718    1.2649    1.5756 H   0  0  0  0  0  0  0  0  0  0  0  0
    1.8282    0.9774    4.0211 H   0  0  0  0  0  0  0  0  0  0  0  0
   -1.2552   -1.9907    3.8693 H   0  0  0  0  0  0  0  0  0  0  0  0
   -1.4087   -1.7167    1.4412 H   0  0  0  0  0  0  0  0  0  0  0  0
    1.9149    1.2181   -2.5142 H   0  0  0  0  0  0  0  0  0  0  0  0
  1  2  1  0
  2  3  2  0
  3  4  1  0
  4  5  2  0
  5  6  1  0
  6  7  2  0
  7  8  1  0
  8  9  2  0
  9 10  1  0
  9 11  1  0
 11 12  2  0
  5 13  1  0
 13 14  2  0
 14  2  1  0
 12  6  1  0
  1 15  1  0
  1 16  1  0
  1 17  1  0
  3 18  1  0
  4 19  1  0
  7 20  1  0
  8 21  1  0
 11 22  1  0
 12 23  1  0
 14 24  1  0
M  END
$$$$

     RDKit          3D

 24 25  0  0  0  0  0  0  0  0999 V2000
    2.0925   -1.2195    3.6835 C   0  0  0  0  0  0  0  0  0  0  0  0
    1.4221   -0.7849    2.4231 C   0  0  0  0  0  0  0  0  0  0  0  0
    2.1311   -0.4077    1.2777 C   0  0  0  0  0  0  0  0  0  0  0  0
    1.4593   -0.0309    0.1367 C   0  0  0  0  0  0  0  0  0  0  0  0
    0.0615   -0.0234    0.1375 C   0  0  0  0  0  0  0  0  0  0  0  0
   -0.7206    0.3751   -1.0659 C   0  0  0  0  0  0  0  0  0  0  0  0
   -2.0554   -0.0225   -1.1968 C   0  0  0  0  0  0  0  0  0  0  0  0
   -2.7942    0.3029   -2.3285 C   0  0  0  0  0  0  0  0  0  0  0  0
   -2.2046    1.0509   -3.3319 C   0  0  0  0  0  0  0  0  0  0  0  0
   -3.2097    1.4846   -4.8885 Br  0  0  0  0  0  0  0  0  0  0  0  0
   -0.9007    1.4868   -3.2219 C   0  0  0  0  0  0  0  0  0  0  0  0
   -0.1653    1.1521   -2.0900 C   0  0  0  0  0  0  0  0  0  0  0  0
   -0.6296   -0.3869    1.2237 N   0  0  0  0  0  0  0  0  0  0  0  0
    0.0238   -0.7497    2.3144 C   0  0  0  0  0  0  0  0  0  0  0  0
    3.1332   -0.8866    3.7126 H   0  0  0  0  0  0  0  0  0  0  0  0
    2.0932   -2.3047    3.7642 H   0  0  0  0  0  0  0  0  0  0  0  0
    1.5742   -0.8277    4.5605 H   0  0  0  0  0  0  0  0  0  0  0  0
    3.2110   -0.4151    1.2926 H   0  0  0  0  0  0  0  0  0  0  0  0
    2.0004    0.2462   -0.7580 H   0  0  0  0  0  0  0  0  0  0  0  0
   -2.5205   -0.5911   -0.4019 H   0  0  0  0  0  0  0  0  0  0  0  0
   -3.8196   -0.0273   -2.4192 H   0  0  0  0  0  0  0  0  0  0  0  0
   -0.4466    2.0860   -3.9958 H   0  0  0  0  0  0  0  0  0  0  0  0
    0.8474    1.5257   -2.0005 H   0  0  0  0  0  0  0  0  0  0  0  0
   -0.5830   -1.0321    3.1725 H   0  0  0  0  0  0  0  0  0  0  0  0
  1  2  1  0
  2  3  2  0
  3  4  1  0
  4  5  2  0
  5  6  1  0
  6  7  2  0
  7  8  1  0
  8  9  2  0
  9 10  1  0
  9 11  1  0
 11 12  2  0
  5 13  1  0
 13 14  2  0
 14  2  1  0
 12  6  1  0
  1 15  1  0
  1 16  1  0
  1 17  1  0
  3 18  1  0
  4 19  1  0
  7 20  1  0
  8 21  1  0
 11 22  1  0
 12 23  1  0
 14 24  1  0
M  END
$$$$

     RDKit          3D

 24 25  0  0  0  0  0  0  0  0999 V2000
    4.1066    0.0296    1.6119 C   0  0  0  0  0  0  0  0  0  0  0  0
    2.7122    0.0514    1.0852 C   0  0  0  0  0  0  0  0  0  0  0  0
    1.8839    1.1715    1.2182 C   0  0  0  0  0  0  0  0  0  0  0  0
    0.6083    1.1558    0.7017 C   0  0  0  0  0  0  0  0  0  0  0  0
    0.1414    0.0085    0.0514 C   0  0  0  0  0  0  0  0  0  0  0  0
   -1.2365   -0.0838   -0.5184 C   0  0  0  0  0  0  0  0  0  0  0  0
   -1.6204   -1.2334   -1.2218 C   0  0  0  0  0  0  0  0  0  0  0  0
   -2.8913   -1.3532   -1.7679 C   0  0  0  0  0  0  0  0  0  0  0  0
   -3.7992   -0.3229   -1.6063 C   0  0  0  0  0  0  0  0  0  0  0  0
   -5.5390   -0.4878   -2.3550 Br  0  0  0  0  0  0  0  0  0  0  0  0
   -3.4609    0.8222   -0.9165 C   0  0  0  0  0  0  0  0  0  0  0  0
   -2.1842    0.9400   -0.3775 C   0  0  0  0  0  0  0  0  0  0  0  0
    0.9262   -1.0688   -0.0830 N   0  0  0  0  0  0  0  0  0  0  0  0
    2.1524   -1.0453    0.4118 C   0  0  0  0  0  0  0  0  0  0  0  0
    4.5021   -0.9863    1.6673 H   0  0  0  0  0  0  0  0  0  0  0  0
    4.7644    0.6150    0.9751 H   0  0  0  0  0  0  0  0  0  0  0  0
    4.1516    0.4800    2.6038 H   0  0  0  0  0  0  0  0  0  0  0  0
    2.2524    2.0486    1.7298 H   0  0  0  0  0  0  0  0  0  0  0  0
   -0.0255    2.0250    0.7919 H   0  0  0  0  0  0  0  0  0  0  0  0
   -0.9117   -2.0403   -1.3443 H   0  0  0  0  0  0  0  0  0  0  0  0
   -3.1661   -2.2476   -2.3075 H   0  0  0  0  0  0  0  0  0  0  0  0
   -4.1708    1.6239   -0.7895 H   0  0  0  0  0  0  0  0  0  0  0  0
   -1.9384    1.8440    0.1637 H   0  0  0  0  0  0  0  0  0  0  0  0
    2.7425   -1.9460    0.2760 H   0  0  0  0  0  0  0  0  0  0  0  0
  1  2  1  0
  2  3  2  0
  3  4  1  0
  4  5  2  0
  5  6  1  0
  6  7  2  0
  7  8  1  0
  8  9  2  0
  9 10  1  0
  9 11  1  0
 11 12  2  0
  5 13  1  0
 13 14  2  0
 14  2  1  0
 12  6  1  0
  1 15  1  0
  1 16  1  0
  1 17  1  0
  3 18  1  0
  4 19  1  0
  7 20  1  0
  8 21  1  0
 11 22  1  0
 12 23  1  0
 14 24  1  0
M  END
$$$$

     RDKit          3D

 24 25  0  0  0  0  0  0  0  0999 V2000
    4.3124   -0.8572    0.2599 C   0  0  0  0  0  0  0  0  0  0  0  0
    2.8612   -0.5232    0.1976 C   0  0  0  0  0  0  0  0  0  0  0  0
    2.3765    0.7818    0.3196 C   0  0  0  0  0  0  0  0  0  0  0  0
    1.0237    1.0294    0.2387 C   0  0  0  0  0  0  0  0  0  0  0  0
    0.1452   -0.0355    0.0294 C   0  0  0  0  0  0  0  0  0  0  0  0
   -1.3257    0.1733   -0.0885 C   0  0  0  0  0  0  0  0  0  0  0  0
   -2.2026   -0.8742    0.2052 C   0  0  0  0  0  0  0  0  0  0  0  0
   -3.5783   -0.7080    0.0927 C   0  0  0  0  0  0  0  0  0  0  0  0
   -4.0850    0.5139   -0.3191 C   0  0  0  0  0  0  0  0  0  0  0  0
   -5.9662    0.7463   -0.4722 Br  0  0  0  0  0  0  0  0  0  0  0  0
   -3.2479    1.5684   -0.6210 C   0  0  0  0  0  0  0  0  0  0  0  0
   -1.8725    1.3966   -0.5025 C   0  0  0  0  0  0  0  0  0  0  0  0
    0.5942   -1.2927   -0.0693 N   0  0  0  0  0  0  0  0  0  0  0  0
    1.8928   -1.5212    0.0069 C   0  0  0  0  0  0  0  0  0  0  0  0
    4.5031   -1.6238    1.0140 H   0  0  0  0  0  0  0  0  0  0  0  0
    4.6572   -1.2529   -0.6941 H   0  0  0  0  0  0  0  0  0  0  0  0
    4.9121    0.0237    0.5036 H   0  0  0  0  0  0  0  0  0  0  0  0
    3.0690    1.5940    0.4804 H   0  0  0  0  0  0  0  0  0  0  0  0
    0.6327    2.0317    0.3478 H   0  0  0  0  0  0  0  0  0  0  0  0
   -1.8015   -1.8321    0.5164 H   0  0  0  0  0  0  0  0  0  0  0  0
   -4.2432   -1.5266    0.3291 H   0  0  0  0  0  0  0  0  0  0  0  0
   -3.6438    2.5188   -0.9494 H   0  0  0  0  0  0  0  0  0  0  0  0
   -1.2220    2.2277   -0.7436 H   0  0  0  0  0  0  0  0  0  0  0  0
    2.2084   -2.5582   -0.0817 H   0  0  0  0  0  0  0  0  0  0  0  0
  1  2  1  0
  2  3  2  0
  3  4  1  0
  4  5  2  0
  5  6  1  0
  6  7  2  0
  7  8  1  0
  8  9  2  0
  9 10  1  0
  9 11  1  0
 11 12  2  0
  5 13  1  0
 13 14  2  0
 14  2  1  0
 12  6  1  0
  1 15  1  0
  1 16  1  0
  1 17  1  0
  3 18  1  0
  4 19  1  0
  7 20  1  0
  8 21  1  0
 11 22  1  0
 12 23  1  0
 14 24  1  0
M  END
$$$$

     RDKit          3D

 24 25  0  0  0  0  0  0  0  0999 V2000
   -3.1287   -0.8846   -2.9726 C   0  0  0  0  0  0  0  0  0  0  0  0
   -2.0581   -0.6289   -1.9679 C   0  0  0  0  0  0  0  0  0  0  0  0
   -0.9817   -1.4985   -1.7679 C   0  0  0  0  0  0  0  0  0  0  0  0
   -0.0121   -1.2038   -0.8360 C   0  0  0  0  0  0  0  0  0  0  0  0
   -0.1168   -0.0263   -0.0930 C   0  0  0  0  0  0  0  0  0  0  0  0
    0.9055    0.3479    0.9241 C   0  0  0  0  0  0  0  0  0  0  0  0
    0.5510    1.1548    2.0088 C   0  0  0  0  0  0  0  0  0  0  0  0
    1.4913    1.5250    2.9626 C   0  0  0  0  0  0  0  0  0  0  0  0
    2.7977    1.0830    2.8373 C   0  0  0  0  0  0  0  0  0  0  0  0
    4.0872    1.5861    4.1391 Br  0  0  0  0  0  0  0  0  0  0  0  0
    3.1822    0.2838    1.7806 C   0  0  0  0  0  0  0  0  0  0  0  0
    2.2363   -0.0808    0.8282 C   0  0  0  0  0  0  0  0  0  0  0  0
   -1.1478    0.8086   -0.2655 N   0  0  0  0  0  0  0  0  0  0  0  0
   -2.0713    0.5227   -1.1655 C   0  0  0  0  0  0  0  0  0  0  0  0
   -4.1184   -0.7450   -2.5315 H   0  0  0  0  0  0  0  0  0  0  0  0
   -3.0462   -0.1923   -3.8074 H   0  0  0  0  0  0  0  0  0  0  0  0
   -3.0653   -1.9032   -3.3648 H   0  0  0  0  0  0  0  0  0  0  0  0
   -0.9174   -2.4080   -2.3449 H   0  0  0  0  0  0  0  0  0  0  0  0
    0.8186   -1.8760   -0.6642 H   0  0  0  0  0  0  0  0  0  0  0  0
   -0.4725    1.4998    2.1032 H   0  0  0  0  0  0  0  0  0  0  0  0
    1.2007    2.1500    3.7961 H   0  0  0  0  0  0  0  0  0  0  0  0
    4.2040   -0.0530    1.6787 H   0  0  0  0  0  0  0  0  0  0  0  0
    2.5453   -0.6993   -0.0056 H   0  0  0  0  0  0  0  0  0  0  0  0
   -2.8835    1.2380   -1.2718 H   0  0  0  0  0  0  0  0  0  0  0  0
  1  2  1  0
  2  3  2  0
  3  4  1  0
  4  5  2  0
  5  6  1  0
  6  7  2  0
  7  8  1  0
  8  9  2  0
  9 10  1  0
  9 11  1  0
 11 12  2  0
  5 13  1  0
 13 14  2  0
 14  2  1  0
 12  6  1  0
  1 15  1  0
  1 16  1  0
  1 17  1  0
  3 18  1  0
  4 19  1  0
  7 20  1  0
  8 21  1  0
 11 22  1  0
 12 23  1  0
 14 24  1  0
M  END
$$$$

     RDKit          3D

 24 25  0  0  0  0  0  0  0  0999 V2000
   -1.4774   -4.1529    0.0378 C   0  0  0  0  0  0  0  0  0  0  0  0
   -0.9613   -2.7536    0.0756 C   0  0  0  0  0  0  0  0  0  0  0  0
    0.1537   -2.3737    0.8288 C   0  0  0  0  0  0  0  0  0  0  0  0
    0.6022   -1.0713    0.7962 C   0  0  0  0  0  0  0  0  0  0  0  0
   -0.0693   -0.1351    0.0058 C   0  0  0  0  0  0  0  0  0  0  0  0
    0.3830    1.2819   -0.0815 C   0  0  0  0  0  0  0  0  0  0  0  0
   -0.5109    2.2796   -0.4837 C   0  0  0  0  0  0  0  0  0  0  0  0
   -0.1154    3.6102   -0.5568 C   0  0  0  0  0  0  0  0  0  0  0  0
    1.1877    3.9493   -0.2344 C   0  0  0  0  0  0  0  0  0  0  0  0
    1.7296    5.7701   -0.3199 Br  0  0  0  0  0  0  0  0  0  0  0  0
    2.0997    2.9881    0.1507 C   0  0  0  0  0  0  0  0  0  0  0  0
    1.6968    1.6589    0.2245 C   0  0  0  0  0  0  0  0  0  0  0  0
   -1.1552   -0.4788   -0.6974 N   0  0  0  0  0  0  0  0  0  0  0  0
   -1.5739   -1.7316   -0.6681 C   0  0  0  0  0  0  0  0  0  0  0  0
   -2.5427   -4.1802    0.2793 H   0  0  0  0  0  0  0  0  0  0  0  0
   -1.3640   -4.5773   -0.9588 H   0  0  0  0  0  0  0  0  0  0  0  0
   -0.9439   -4.7928    0.7449 H   0  0  0  0  0  0  0  0  0  0  0  0
    0.6606   -3.1023    1.4415 H   0  0  0  0  0  0  0  0  0  0  0  0
    1.4582   -0.7612    1.3797 H   0  0  0  0  0  0  0  0  0  0  0  0
   -1.5240    2.0046   -0.7511 H   0  0  0  0  0  0  0  0  0  0  0  0
   -0.8234    4.3700   -0.8571 H   0  0  0  0  0  0  0  0  0  0  0  0
    3.1213    3.2467    0.3841 H   0  0  0  0  0  0  0  0  0  0  0  0
    2.4233    0.9135    0.5233 H   0  0  0  0  0  0  0  0  0  0  0  0
   -2.4549   -1.9621   -1.2634 H   0  0  0  0  0  0  0  0  0  0  0  0
  1  2  1  0
  2  3  2  0
  3  4  1  0
  4  5  2  0
  5  6  1  0
  6  7  2  0
  7  8  1  0
  8  9  2  0
  9 10  1  0
  9 11  1  0
 11 12  2  0
  5 13  1  0
 13 14  2  0
 14  2  1  0
 12  6  1  0
  1 15  1  0
  1 16  1  0
  1 17  1  0
  3 18  1  0
  4 19  1  0
  7 20  1  0
  8 21  1  0
 11 22  1  0
 12 23  1  0
 14 24  1  0
M  END
$$$$

     RDKit          3D

 24 25  0  0  0  0  0  0  0  0999 V2000
   -2.2428   -3.5493    1.3381 C   0  0  0  0  0  0  0  0  0  0  0  0
   -1.5021   -2.3313    0.9008 C   0  0  0  0  0  0  0  0  0  0  0  0
   -2.1491   -1.1109    0.6781 C   0  0  0  0  0  0  0  0  0  0  0  0
   -1.4323   -0.0137    0.2626 C   0  0  0  0  0  0  0  0  0  0  0  0
   -0.0519   -0.1288    0.0672 C   0  0  0  0  0  0  0  0  0  0  0  0
    0.7678    1.0212   -0.4067 C   0  0  0  0  0  0  0  0  0  0  0  0
    2.1293    1.0945   -0.0974 C   0  0  0  0  0  0  0  0  0  0  0  0
    2.9037    2.1679   -0.5209 C   0  0  0  0  0  0  0  0  0  0  0  0
    2.3186    3.1708   -1.2735 C   0  0  0  0  0  0  0  0  0  0  0  0
    3.3723    4.6413   -1.8504 Br  0  0  0  0  0  0  0  0  0  0  0  0
    0.9829    3.1214   -1.6144 C   0  0  0  0  0  0  0  0  0  0  0  0
    0.2124    2.0465   -1.1830 C   0  0  0  0  0  0  0  0  0  0  0  0
    0.5834   -1.2800    0.3019 N   0  0  0  0  0  0  0  0  0  0  0  0
   -0.1129   -2.3336    0.6974 C   0  0  0  0  0  0  0  0  0  0  0  0
   -3.1586   -3.6751    0.7588 H   0  0  0  0  0  0  0  0  0  0  0  0
   -2.5447   -3.4607    2.3774 H   0  0  0  0  0  0  0  0  0  0  0  0
   -1.6317   -4.4506    1.2274 H   0  0  0  0  0  0  0  0  0  0  0  0
   -3.2165   -1.0364    0.8368 H   0  0  0  0  0  0  0  0  0  0  0  0
   -1.9201    0.9374    0.0992 H   0  0  0  0  0  0  0  0  0  0  0  0
    2.5861    0.3007    0.4849 H   0  0  0  0  0  0  0  0  0  0  0  0
    3.9537    2.2126   -0.2658 H   0  0  0  0  0  0  0  0  0  0  0  0
    0.5317    3.9001   -2.2102 H   0  0  0  0  0  0  0  0  0  0  0  0
   -0.8301    2.0026   -1.4725 H   0  0  0  0  0  0  0  0  0  0  0  0
    0.4508   -3.2467    0.8642 H   0  0  0  0  0  0  0  0  0  0  0  0
  1  2  1  0
  2  3  2  0
  3  4  1  0
  4  5  2  0
  5  6  1  0
  6  7  2  0
  7  8  1  0
  8  9  2  0
  9 10  1  0
  9 11  1  0
 11 12  2  0
  5 13  1  0
 13 14  2  0
 14  2  1  0
 12  6  1  0
  1 15  1  0
  1 16  1  0
  1 17  1  0
  3 18  1  0
  4 19  1  0
  7 20  1  0
  8 21  1  0
 11 22  1  0
 12 23  1  0
 14 24  1  0
M  END
$$$$

     RDKit          3D

 24 25  0  0  0  0  0  0  0  0999 V2000
   -0.9937   -0.6678   -4.2406 C   0  0  0  0  0  0  0  0  0  0  0  0
   -0.6127   -0.4440   -2.8162 C   0  0  0  0  0  0  0  0  0  0  0  0
    0.7151   -0.3254   -2.3939 C   0  0  0  0  0  0  0  0  0  0  0  0
    1.0037   -0.1083   -1.0657 C   0  0  0  0  0  0  0  0  0  0  0  0
   -0.0414   -0.0168   -0.1440 C   0  0  0  0  0  0  0  0  0  0  0  0
    0.2112    0.1962    1.3083 C   0  0  0  0  0  0  0  0  0  0  0  0
   -0.7998    0.7132    2.1260 C   0  0  0  0  0  0  0  0  0  0  0  0
   -0.5861    0.9311    3.4813 C   0  0  0  0  0  0  0  0  0  0  0  0
    0.6450    0.6193    4.0308 C   0  0  0  0  0  0  0  0  0  0  0  0
    0.9423    0.9323    5.8829 Br  0  0  0  0  0  0  0  0  0  0  0  0
    1.6604    0.0927    3.2591 C   0  0  0  0  0  0  0  0  0  0  0  0
    1.4420   -0.1174    1.9017 C   0  0  0  0  0  0  0  0  0  0  0  0
   -1.3189   -0.1148   -0.5368 N   0  0  0  0  0  0  0  0  0  0  0  0
   -1.5876   -0.3193   -1.8135 C   0  0  0  0  0  0  0  0  0  0  0  0
   -0.1216   -0.9139   -4.8511 H   0  0  0  0  0  0  0  0  0  0  0  0
   -1.7239   -1.4732   -4.3292 H   0  0  0  0  0  0  0  0  0  0  0  0
   -1.4511    0.2277   -4.6567 H   0  0  0  0  0  0  0  0  0  0  0  0
    1.5162   -0.4008   -3.1138 H   0  0  0  0  0  0  0  0  0  0  0  0
    2.0255    0.0087   -0.7364 H   0  0  0  0  0  0  0  0  0  0  0  0
   -1.7651    0.9451    1.6920 H   0  0  0  0  0  0  0  0  0  0  0  0
   -1.3764    1.3380    4.0979 H   0  0  0  0  0  0  0  0  0  0  0  0
    2.6167   -0.1578    3.6920 H   0  0  0  0  0  0  0  0  0  0  0  0
    2.2399   -0.5472    1.3084 H   0  0  0  0  0  0  0  0  0  0  0  0
   -2.6400   -0.3977   -2.0823 H   0  0  0  0  0  0  0  0  0  0  0  0
  1  2  1  0
  2  3  2  0
  3  4  1  0
  4  5  2  0
  5  6  1  0
  6  7  2  0
  7  8  1  0
  8  9  2  0
  9 10  1  0
  9 11  1  0
 11 12  2  0
  5 13  1  0
 13 14  2  0
 14  2  1  0
 12  6  1  0
  1 15  1  0
  1 16  1  0
  1 17  1  0
  3 18  1  0
  4 19  1  0
  7 20  1  0
  8 21  1  0
 11 22  1  0
 12 23  1  0
 14 24  1  0
M  END
$$$$
