
     RDKit          3D

 26 27  0  0  0  0  0  0  0  0999 V2000
    0.3537   -3.6169    2.9364 O   0  0  0  0  0  0  0  0  0  0  0  0
   -0.7822   -3.4336    2.5267 C   0  0  0  0  0  0  0  0  0  0  0  0
   -1.8165   -4.2082    2.9000 O   0  0  0  0  0  0  0  0  0  0  0  0
   -1.1530   -2.3454    1.5841 C   0  0  0  0  0  0  0  0  0  0  0  0
   -2.4573   -2.1574    1.1423 C   0  0  0  0  0  0  0  0  0  0  0  0
   -2.7062   -1.1164    0.2630 C   0  0  0  0  0  0  0  0  0  0  0  0
   -1.7684   -0.2872   -0.1856 N   0  0  0  0  0  0  0  0  0  0  0  0
   -0.5114   -0.4789    0.2386 C   0  0  0  0  0  0  0  0  0  0  0  0
    0.5275    0.4457   -0.2842 C   0  0  0  0  0  0  0  0  0  0  0  0
    0.1659    1.5235   -1.0596 C   0  0  0  0  0  0  0  0  0  0  0  0
    1.1521    2.3717   -1.5484 C   0  0  0  0  0  0  0  0  0  0  0  0
    0.7516    3.5315   -2.3851 C   0  0  0  0  0  0  0  0  0  0  0  0
   -0.4071    3.7911   -2.6693 O   0  0  0  0  0  0  0  0  0  0  0  0
    1.7831    4.2774   -2.8123 O   0  0  0  0  0  0  0  0  0  0  0  0
    2.4774    2.0948   -1.2341 C   0  0  0  0  0  0  0  0  0  0  0  0
    2.7430    0.9875   -0.4446 C   0  0  0  0  0  0  0  0  0  0  0  0
    1.8015    0.1769    0.0320 N   0  0  0  0  0  0  0  0  0  0  0  0
   -0.1677   -1.4816    1.1174 C   0  0  0  0  0  0  0  0  0  0  0  0
   -1.4851   -4.8998    3.5047 H   0  0  0  0  0  0  0  0  0  0  0  0
   -3.2681   -2.8065    1.4708 H   0  0  0  0  0  0  0  0  0  0  0  0
   -3.7103   -0.9361   -0.1103 H   0  0  0  0  0  0  0  0  0  0  0  0
   -0.8757    1.7085   -1.2905 H   0  0  0  0  0  0  0  0  0  0  0  0
    1.4379    5.0074   -3.3549 H   0  0  0  0  0  0  0  0  0  0  0  0
    3.2906    2.7235   -1.5936 H   0  0  0  0  0  0  0  0  0  0  0  0
    3.7633    0.7289   -0.1785 H   0  0  0  0  0  0  0  0  0  0  0  0
    0.8616   -1.6006    1.4350 H   0  0  0  0  0  0  0  0  0  0  0  0
  1  2  2  0
  2  3  1  0
  2  4  1  0
  4  5  2  0
  5  6  1  0
  6  7  2  0
  7  8  1  0
  8  9  1  0
  9 10  2  0
 10 11  1  0
 11 12  1  0
 12 13  2  0
 12 14  1  0
 11 15  2  0
 15 16  1  0
 16 17  2  0
  8 18  2  0
 18  4  1  0
 17  9  1  0
  3 19  1  0
  5 20  1  0
  6 21  1  0
 10 22  1  0
 14 23  1  0
 15 24  1  0
 16 25  1  0
 18 26  1  0
M  END
$$$$

     RDKit          3D

 26 27  0  0  0  0  0  0  0  0999 V2000
    1.6953   -3.7090    0.2469 O   0  0  0  0  0  0  0  0  0  0  0  0
    2.4897   -3.0289   -0.3771 C   0  0  0  0  0  0  0  0  0  0  0  0
    3.6757   -3.4939   -0.7911 O   0  0  0  0  0  0  0  0  0  0  0  0
    2.2412   -1.6119   -0.7542 C   0  0  0  0  0  0  0  0  0  0  0  0
    3.1665   -0.8476   -1.4489 C   0  0  0  0  0  0  0  0  0  0  0  0
    2.8326    0.4654   -1.7473 C   0  0  0  0  0  0  0  0  0  0  0  0
    1.6738    1.0326   -1.3972 N   0  0  0  0  0  0  0  0  0  0  0  0
    0.7914    0.2911   -0.7314 C   0  0  0  0  0  0  0  0  0  0  0  0
   -0.4908    0.9358   -0.3578 C   0  0  0  0  0  0  0  0  0  0  0  0
   -1.1308    0.5969    0.8264 C   0  0  0  0  0  0  0  0  0  0  0  0
   -2.3360    1.1969    1.1448 C   0  0  0  0  0  0  0  0  0  0  0  0
   -3.0152    0.8046    2.4081 C   0  0  0  0  0  0  0  0  0  0  0  0
   -2.5664   -0.0096    3.1933 O   0  0  0  0  0  0  0  0  0  0  0  0
   -4.1767    1.4388    2.6105 O   0  0  0  0  0  0  0  0  0  0  0  0
   -2.8656    2.1324    0.2686 C   0  0  0  0  0  0  0  0  0  0  0  0
   -2.1531    2.4170   -0.8873 C   0  0  0  0  0  0  0  0  0  0  0  0
   -0.9899    1.8358   -1.2022 N   0  0  0  0  0  0  0  0  0  0  0  0
    1.0389   -1.0338   -0.3936 C   0  0  0  0  0  0  0  0  0  0  0  0
    3.7778   -4.4155   -0.5023 H   0  0  0  0  0  0  0  0  0  0  0  0
    4.1281   -1.2543   -1.7631 H   0  0  0  0  0  0  0  0  0  0  0  0
    3.5311    1.0915   -2.2939 H   0  0  0  0  0  0  0  0  0  0  0  0
   -0.6873   -0.1179    1.5073 H   0  0  0  0  0  0  0  0  0  0  0  0
   -4.5765    1.1209    3.4372 H   0  0  0  0  0  0  0  0  0  0  0  0
   -3.8112    2.6380    0.4689 H   0  0  0  0  0  0  0  0  0  0  0  0
   -2.5363    3.1457   -1.5940 H   0  0  0  0  0  0  0  0  0  0  0  0
    0.2936   -1.6210    0.1294 H   0  0  0  0  0  0  0  0  0  0  0  0
  1  2  2  0
  2  3  1  0
  2  4  1  0
  4  5  2  0
  5  6  1  0
  6  7  2  0
  7  8  1  0
  8  9  1  0
  9 10  2  0
 10 11  1  0
 11 12  1  0
 12 13  2  0
 12 14  1  0
 11 15  2  0
 15 16  1  0
 16 17  2  0
  8 18  2  0
 18  4  1  0
 17  9  1  0
  3 19  1  0
  5 20  1  0
  6 21  1  0
 10 22  1  0
 14 23  1  0
 15 24  1  0
 16 25  1  0
 18 26  1  0
M  END
$$$$

     RDKit          3D

 26 27  0  0  0  0  0  0  0  0999 V2000
    2.8702    3.0008    2.1124 O   0  0  0  0  0  0  0  0  0  0  0  0
    2.0490    2.5103    2.8713 C   0  0  0  0  0  0  0  0  0  0  0  0
    2.0146    2.8050    4.1817 O   0  0  0  0  0  0  0  0  0  0  0  0
    1.0120    1.5362    2.4400 C   0  0  0  0  0  0  0  0  0  0  0  0
    0.0920    0.9812    3.3215 C   0  0  0  0  0  0  0  0  0  0  0  0
   -0.8311    0.0776    2.8218 C   0  0  0  0  0  0  0  0  0  0  0  0
   -0.8847   -0.2978    1.5457 N   0  0  0  0  0  0  0  0  0  0  0  0
    0.0022    0.2474    0.7015 C   0  0  0  0  0  0  0  0  0  0  0  0
   -0.0765   -0.1664   -0.7228 C   0  0  0  0  0  0  0  0  0  0  0  0
   -0.9296   -1.1781   -1.0975 C   0  0  0  0  0  0  0  0  0  0  0  0
   -0.9881   -1.5606   -2.4333 C   0  0  0  0  0  0  0  0  0  0  0  0
   -1.8975   -2.6671   -2.8290 C   0  0  0  0  0  0  0  0  0  0  0  0
   -2.6003   -3.2791   -2.0413 O   0  0  0  0  0  0  0  0  0  0  0  0
   -1.8767   -2.9439   -4.1462 O   0  0  0  0  0  0  0  0  0  0  0  0
   -0.1851   -0.8887   -3.3475 C   0  0  0  0  0  0  0  0  0  0  0  0
    0.6355    0.1231   -2.8759 C   0  0  0  0  0  0  0  0  0  0  0  0
    0.7063    0.4811   -1.5958 N   0  0  0  0  0  0  0  0  0  0  0  0
    0.9523    1.1584    1.1033 C   0  0  0  0  0  0  0  0  0  0  0  0
    2.7249    3.4345    4.3893 H   0  0  0  0  0  0  0  0  0  0  0  0
    0.0868    1.2435    4.3791 H   0  0  0  0  0  0  0  0  0  0  0  0
   -1.5694   -0.3764    3.4766 H   0  0  0  0  0  0  0  0  0  0  0  0
   -1.5441   -1.6740   -0.3561 H   0  0  0  0  0  0  0  0  0  0  0  0
   -2.4910   -3.6817   -4.3208 H   0  0  0  0  0  0  0  0  0  0  0  0
   -0.1927   -1.1410   -4.4074 H   0  0  0  0  0  0  0  0  0  0  0  0
    1.2757    0.6801   -3.5533 H   0  0  0  0  0  0  0  0  0  0  0  0
    1.6451    1.5753    0.3826 H   0  0  0  0  0  0  0  0  0  0  0  0
  1  2  2  0
  2  3  1  0
  2  4  1  0
  4  5  2  0
  5  6  1  0
  6  7  2  0
  7  8  1  0
  8  9  1  0
  9 10  2  0
 10 11  1  0
 11 12  1  0
 12 13  2  0
 12 14  1  0
 11 15  2  0
 15 16  1  0
 16 17  2  0
  8 18  2  0
 18  4  1  0
 17  9  1  0
  3 19  1  0
  5 20  1  0
  6 21  1  0
 10 22  1  0
 14 23  1  0
 15 24  1  0
 16 25  1  0
 18 26  1  0
M  END
$$$$

     RDKit          3D

 26 27  0  0  0  0  0  0  0  0999 V2000
   -3.7040   -2.8008    0.3279 O   0  0  0  0  0  0  0  0  0  0  0  0
   -3.4857   -2.4336   -0.8160 C   0  0  0  0  0  0  0  0  0  0  0  0
   -4.2534   -2.8122   -1.8529 O   0  0  0  0  0  0  0  0  0  0  0  0
   -2.3658   -1.5284   -1.1860 C   0  0  0  0  0  0  0  0  0  0  0  0
   -2.1257   -1.1300   -2.4959 C   0  0  0  0  0  0  0  0  0  0  0  0
   -1.0468   -0.2943   -2.7371 C   0  0  0  0  0  0  0  0  0  0  0  0
   -0.2300    0.1493   -1.7866 N   0  0  0  0  0  0  0  0  0  0  0  0
   -0.4706   -0.2355   -0.5257 C   0  0  0  0  0  0  0  0  0  0  0  0
    0.4516    0.2639    0.5264 C   0  0  0  0  0  0  0  0  0  0  0  0
    1.5120    1.0730    0.1883 C   0  0  0  0  0  0  0  0  0  0  0  0
    2.3658    1.5310    1.1869 C   0  0  0  0  0  0  0  0  0  0  0  0
    3.5067    2.4071    0.8123 C   0  0  0  0  0  0  0  0  0  0  0  0
    3.7418    2.7553   -0.3356 O   0  0  0  0  0  0  0  0  0  0  0  0
    4.2661    2.7917    1.8510 O   0  0  0  0  0  0  0  0  0  0  0  0
    2.1129    1.1454    2.4989 C   0  0  0  0  0  0  0  0  0  0  0  0
    1.0208    0.3267    2.7408 C   0  0  0  0  0  0  0  0  0  0  0  0
    0.2007   -0.1111    1.7883 N   0  0  0  0  0  0  0  0  0  0  0  0
   -1.5177   -1.0625   -0.1878 C   0  0  0  0  0  0  0  0  0  0  0  0
   -4.9453   -3.4143   -1.5173 H   0  0  0  0  0  0  0  0  0  0  0  0
   -2.7622   -1.4584   -3.3170 H   0  0  0  0  0  0  0  0  0  0  0  0
   -0.8189    0.0377   -3.7456 H   0  0  0  0  0  0  0  0  0  0  0  0
    1.6822    1.3438   -0.8469 H   0  0  0  0  0  0  0  0  0  0  0  0
    5.0038    3.3356    1.5154 H   0  0  0  0  0  0  0  0  0  0  0  0
    2.7474    1.4728    3.3227 H   0  0  0  0  0  0  0  0  0  0  0  0
    0.7879   -0.0035    3.7480 H   0  0  0  0  0  0  0  0  0  0  0  0
   -1.6740   -1.3489    0.8437 H   0  0  0  0  0  0  0  0  0  0  0  0
  1  2  2  0
  2  3  1  0
  2  4  1  0
  4  5  2  0
  5  6  1  0
  6  7  2  0
  7  8  1  0
  8  9  1  0
  9 10  2  0
 10 11  1  0
 11 12  1  0
 12 13  2  0
 12 14  1  0
 11 15  2  0
 15 16  1  0
 16 17  2  0
  8 18  2  0
 18  4  1  0
 17  9  1  0
  3 19  1  0
  5 20  1  0
  6 21  1  0
 10 22  1  0
 14 23  1  0
 15 24  1  0
 16 25  1  0
 18 26  1  0
M  END
$$$$

     RDKit          3D

 26 27  0  0  0  0  0  0  0  0999 V2000
    3.1946   -3.2174   -1.0867 O   0  0  0  0  0  0  0  0  0  0  0  0
    3.6750   -2.1138   -0.8769 C   0  0  0  0  0  0  0  0  0  0  0  0
    4.9927   -1.8679   -0.9707 O   0  0  0  0  0  0  0  0  0  0  0  0
    2.8709   -0.9255   -0.4913 C   0  0  0  0  0  0  0  0  0  0  0  0
    3.4481    0.3134   -0.2396 C   0  0  0  0  0  0  0  0  0  0  0  0
    2.6134    1.3624    0.1074 C   0  0  0  0  0  0  0  0  0  0  0  0
    1.2916    1.2532    0.2103 N   0  0  0  0  0  0  0  0  0  0  0  0
    0.7424    0.0550   -0.0293 C   0  0  0  0  0  0  0  0  0  0  0  0
   -0.7336   -0.0566    0.0931 C   0  0  0  0  0  0  0  0  0  0  0  0
   -1.4930    1.0566    0.3743 C   0  0  0  0  0  0  0  0  0  0  0  0
   -2.8750    0.9294    0.4773 C   0  0  0  0  0  0  0  0  0  0  0  0
   -3.6966    2.1319    0.7722 C   0  0  0  0  0  0  0  0  0  0  0  0
   -3.2254    3.2394    0.9753 O   0  0  0  0  0  0  0  0  0  0  0  0
   -5.0212    1.8936    0.8001 O   0  0  0  0  0  0  0  0  0  0  0  0
   -3.4366   -0.3287    0.2974 C   0  0  0  0  0  0  0  0  0  0  0  0
   -2.5894   -1.3894    0.0222 C   0  0  0  0  0  0  0  0  0  0  0  0
   -1.2698   -1.2702   -0.0852 N   0  0  0  0  0  0  0  0  0  0  0  0
    1.4909   -1.0473   -0.3772 C   0  0  0  0  0  0  0  0  0  0  0  0
    5.4539   -2.6948   -1.2025 H   0  0  0  0  0  0  0  0  0  0  0  0
    4.5248    0.4658   -0.3119 H   0  0  0  0  0  0  0  0  0  0  0  0
    3.0206    2.3472    0.3156 H   0  0  0  0  0  0  0  0  0  0  0  0
   -1.0154    2.0172    0.5211 H   0  0  0  0  0  0  0  0  0  0  0  0
   -5.4790    2.7238    1.0234 H   0  0  0  0  0  0  0  0  0  0  0  0
   -4.5122   -0.4885    0.3710 H   0  0  0  0  0  0  0  0  0  0  0  0
   -2.9812   -2.3898   -0.1254 H   0  0  0  0  0  0  0  0  0  0  0  0
    1.0093   -1.9992   -0.5641 H   0  0  0  0  0  0  0  0  0  0  0  0
  1  2  2  0
  2  3  1  0
  2  4  1  0
  4  5  2  0
  5  6  1  0
  6  7  2  0
  7  8  1  0
  8  9  1  0
  9 10  2  0
 10 11  1  0
 11 12  1  0
 12 13  2  0
 12 14  1  0
 11 15  2  0
 15 16  1  0
 16 17  2  0
  8 18  2  0
 18  4  1  0
 17  9  1  0
  3 19  1  0
  5 20  1  0
  6 21  1  0
 10 22  1  0
 14 23  1  0
 15 24  1  0
 16 25  1  0
 18 26  1  0
M  END
$$$$

     RDKit          3D

 26 27  0  0  0  0  0  0  0  0999 V2000
   -3.5495    2.8091   -1.1381 O   0  0  0  0  0  0  0  0  0  0  0  0
   -3.4899    1.8047   -1.8280 C   0  0  0  0  0  0  0  0  0  0  0  0
   -4.3759    1.5498   -2.8077 O   0  0  0  0  0  0  0  0  0  0  0  0
   -2.4437    0.7623   -1.6727 C   0  0  0  0  0  0  0  0  0  0  0  0
   -2.3896   -0.3636   -2.4854 C   0  0  0  0  0  0  0  0  0  0  0  0
   -1.3751   -1.2801   -2.2635 C   0  0  0  0  0  0  0  0  0  0  0  0
   -0.4548   -1.1495   -1.3114 N   0  0  0  0  0  0  0  0  0  0  0  0
   -0.5135   -0.0609   -0.5324 C   0  0  0  0  0  0  0  0  0  0  0  0
    0.5221    0.0735    0.5246 C   0  0  0  0  0  0  0  0  0  0  0  0
    1.4892   -0.8962    0.6686 C   0  0  0  0  0  0  0  0  0  0  0  0
    2.4467   -0.7580    1.6676 C   0  0  0  0  0  0  0  0  0  0  0  0
    3.4865   -1.8086    1.8274 C   0  0  0  0  0  0  0  0  0  0  0  0
    3.5584   -2.8013    1.1209 O   0  0  0  0  0  0  0  0  0  0  0  0
    4.3471   -1.5760    2.8342 O   0  0  0  0  0  0  0  0  0  0  0  0
    2.3916    0.3659    2.4836 C   0  0  0  0  0  0  0  0  0  0  0  0
    1.3865    1.2920    2.2558 C   0  0  0  0  0  0  0  0  0  0  0  0
    0.4663    1.1637    1.3037 N   0  0  0  0  0  0  0  0  0  0  0  0
   -1.4781    0.9090   -0.6820 C   0  0  0  0  0  0  0  0  0  0  0  0
   -5.0366    2.2589   -2.8235 H   0  0  0  0  0  0  0  0  0  0  0  0
   -3.1189   -0.5296   -3.2770 H   0  0  0  0  0  0  0  0  0  0  0  0
   -1.2879   -2.1707   -2.8785 H   0  0  0  0  0  0  0  0  0  0  0  0
    1.4997   -1.7611    0.0136 H   0  0  0  0  0  0  0  0  0  0  0  0
    4.9791   -2.3180    2.8815 H   0  0  0  0  0  0  0  0  0  0  0  0
    3.1133    0.5218    3.2842 H   0  0  0  0  0  0  0  0  0  0  0  0
    1.3088    2.1863    2.8679 H   0  0  0  0  0  0  0  0  0  0  0  0
   -1.4819    1.7766   -0.0335 H   0  0  0  0  0  0  0  0  0  0  0  0
  1  2  2  0
  2  3  1  0
  2  4  1  0
  4  5  2  0
  5  6  1  0
  6  7  2  0
  7  8  1  0
  8  9  1  0
  9 10  2  0
 10 11  1  0
 11 12  1  0
 12 13  2  0
 12 14  1  0
 11 15  2  0
 15 16  1  0
 16 17  2  0
  8 18  2  0
 18  4  1  0
 17  9  1  0
  3 19  1  0
  5 20  1  0
  6 21  1  0
 10 22  1  0
 14 23  1  0
 15 24  1  0
 16 25  1  0
 18 26  1  0
M  END
$$$$

     RDKit          3D

 26 27  0  0  0  0  0  0  0  0999 V2000
    4.1489   -0.1225   -2.1385 O   0  0  0  0  0  0  0  0  0  0  0  0
    3.6914   -1.2299   -1.9056 C   0  0  0  0  0  0  0  0  0  0  0  0
    4.3300   -2.3625   -2.2523 O   0  0  0  0  0  0  0  0  0  0  0  0
    2.3872   -1.4587   -1.2314 C   0  0  0  0  0  0  0  0  0  0  0  0
    1.8868   -2.7342   -0.9953 C   0  0  0  0  0  0  0  0  0  0  0  0
    0.6556   -2.8472   -0.3707 C   0  0  0  0  0  0  0  0  0  0  0  0
   -0.0709   -1.8049    0.0229 N   0  0  0  0  0  0  0  0  0  0  0  0
    0.4205   -0.5792   -0.2018 C   0  0  0  0  0  0  0  0  0  0  0  0
   -0.3982    0.5754    0.2481 C   0  0  0  0  0  0  0  0  0  0  0  0
   -1.6388    0.3664    0.8078 C   0  0  0  0  0  0  0  0  0  0  0  0
   -2.3924    1.4597    1.2216 C   0  0  0  0  0  0  0  0  0  0  0  0
   -3.7368    1.2358    1.8136 C   0  0  0  0  0  0  0  0  0  0  0  0
   -4.2431    0.1329    1.9498 O   0  0  0  0  0  0  0  0  0  0  0  0
   -4.3622    2.3659    2.1890 O   0  0  0  0  0  0  0  0  0  0  0  0
   -1.8536    2.7299    1.0588 C   0  0  0  0  0  0  0  0  0  0  0  0
   -0.5957    2.8392    0.4893 C   0  0  0  0  0  0  0  0  0  0  0  0
    0.1253    1.7975    0.0855 N   0  0  0  0  0  0  0  0  0  0  0  0
    1.6320   -0.3658   -0.8200 C   0  0  0  0  0  0  0  0  0  0  0  0
    5.1666   -2.1289   -2.6886 H   0  0  0  0  0  0  0  0  0  0  0  0
    2.4405   -3.6263   -1.2856 H   0  0  0  0  0  0  0  0  0  0  0  0
    0.2209   -3.8225   -0.1749 H   0  0  0  0  0  0  0  0  0  0  0  0
   -2.0235   -0.6405    0.9159 H   0  0  0  0  0  0  0  0  0  0  0  0
   -5.2422    2.1390    2.5384 H   0  0  0  0  0  0  0  0  0  0  0  0
   -2.3950    3.6239    1.3687 H   0  0  0  0  0  0  0  0  0  0  0  0
   -0.1401    3.8125    0.3422 H   0  0  0  0  0  0  0  0  0  0  0  0
    1.9870    0.6453   -0.9871 H   0  0  0  0  0  0  0  0  0  0  0  0
  1  2  2  0
  2  3  1  0
  2  4  1  0
  4  5  2  0
  5  6  1  0
  6  7  2  0
  7  8  1  0
  8  9  1  0
  9 10  2  0
 10 11  1  0
 11 12  1  0
 12 13  2  0
 12 14  1  0
 11 15  2  0
 15 16  1  0
 16 17  2  0
  8 18  2  0
 18  4  1  0
 17  9  1  0
  3 19  1  0
  5 20  1  0
  6 21  1  0
 10 22  1  0
 14 23  1  0
 15 24  1  0
 16 25  1  0
 18 26  1  0
M  END
$$$$

     RDKit          3D

 26 27  0  0  0  0  0  0  0  0999 V2000
   -3.7057    1.8296    2.1915 O   0  0  0  0  0  0  0  0  0  0  0  0
   -2.7793    2.6144    2.0570 C   0  0  0  0  0  0  0  0  0  0  0  0
   -2.8381    3.8801    2.5077 O   0  0  0  0  0  0  0  0  0  0  0  0
   -1.4968    2.2750    1.3889 C   0  0  0  0  0  0  0  0  0  0  0  0
   -0.4783    3.2058    1.2200 C   0  0  0  0  0  0  0  0  0  0  0  0
    0.6798    2.7971    0.5803 C   0  0  0  0  0  0  0  0  0  0  0  0
    0.8729    1.5661    0.1170 N   0  0  0  0  0  0  0  0  0  0  0  0
   -0.1103    0.6724    0.2881 C   0  0  0  0  0  0  0  0  0  0  0  0
    0.1246   -0.7006   -0.2289 C   0  0  0  0  0  0  0  0  0  0  0  0
    1.2827   -0.9870   -0.9165 C   0  0  0  0  0  0  0  0  0  0  0  0
    1.4861   -2.2722   -1.4047 C   0  0  0  0  0  0  0  0  0  0  0  0
    2.7357   -2.5723   -2.1512 C   0  0  0  0  0  0  0  0  0  0  0  0
    3.6217   -1.7547   -2.3423 O   0  0  0  0  0  0  0  0  0  0  0  0
    2.8087   -3.8353   -2.6047 O   0  0  0  0  0  0  0  0  0  0  0  0
    0.5062   -3.2290   -1.1702 C   0  0  0  0  0  0  0  0  0  0  0  0
   -0.6207   -2.8495   -0.4590 C   0  0  0  0  0  0  0  0  0  0  0  0
   -0.8243   -1.6182    0.0030 N   0  0  0  0  0  0  0  0  0  0  0  0
   -1.2969    0.9847    0.9116 C   0  0  0  0  0  0  0  0  0  0  0  0
   -3.7054    4.0296    2.9228 H   0  0  0  0  0  0  0  0  0  0  0  0
   -0.5760    4.2290    1.5802 H   0  0  0  0  0  0  0  0  0  0  0  0
    1.4996    3.4908    0.4251 H   0  0  0  0  0  0  0  0  0  0  0  0
    2.0307   -0.2204   -1.0726 H   0  0  0  0  0  0  0  0  0  0  0  0
    3.6470   -3.9495   -3.0878 H   0  0  0  0  0  0  0  0  0  0  0  0
    0.6143   -4.2529   -1.5284 H   0  0  0  0  0  0  0  0  0  0  0  0
   -1.4093   -3.5662   -0.2492 H   0  0  0  0  0  0  0  0  0  0  0  0
   -2.0689    0.2331    1.0219 H   0  0  0  0  0  0  0  0  0  0  0  0
  1  2  2  0
  2  3  1  0
  2  4  1  0
  4  5  2  0
  5  6  1  0
  6  7  2  0
  7  8  1  0
  8  9  1  0
  9 10  2  0
 10 11  1  0
 11 12  1  0
 12 13  2  0
 12 14  1  0
 11 15  2  0
 15 16  1  0
 16 17  2  0
  8 18  2  0
 18  4  1  0
 17  9  1  0
  3 19  1  0
  5 20  1  0
  6 21  1  0
 10 22  1  0
 14 23  1  0
 15 24  1  0
 16 25  1  0
 18 26  1  0
M  END
$$$$

     RDKit          3D

 26 27  0  0  0  0  0  0  0  0999 V2000
   -4.5888   -0.8121    0.3055 O   0  0  0  0  0  0  0  0  0  0  0  0
   -4.0143   -0.8722    1.3814 C   0  0  0  0  0  0  0  0  0  0  0  0
   -4.6600   -1.1326    2.5328 O   0  0  0  0  0  0  0  0  0  0  0  0
   -2.5525   -0.6693    1.5458 C   0  0  0  0  0  0  0  0  0  0  0  0
   -1.9248   -0.7496    2.7828 C   0  0  0  0  0  0  0  0  0  0  0  0
   -0.5581   -0.5366    2.8348 C   0  0  0  0  0  0  0  0  0  0  0  0
    0.1889   -0.2627    1.7685 N   0  0  0  0  0  0  0  0  0  0  0  0
   -0.4224   -0.1871    0.5785 C   0  0  0  0  0  0  0  0  0  0  0  0
    0.4247    0.1305   -0.6009 C   0  0  0  0  0  0  0  0  0  0  0  0
    1.7722    0.3545   -0.4356 C   0  0  0  0  0  0  0  0  0  0  0  0
    2.5515    0.6664   -1.5445 C   0  0  0  0  0  0  0  0  0  0  0  0
    4.0045    0.9183   -1.3638 C   0  0  0  0  0  0  0  0  0  0  0  0
    4.5729    0.8606   -0.2840 O   0  0  0  0  0  0  0  0  0  0  0  0
    4.6515    1.2132   -2.5045 O   0  0  0  0  0  0  0  0  0  0  0  0
    1.9341    0.7332   -2.7881 C   0  0  0  0  0  0  0  0  0  0  0  0
    0.5730    0.4856   -2.8549 C   0  0  0  0  0  0  0  0  0  0  0  0
   -0.1773    0.1891   -1.7951 N   0  0  0  0  0  0  0  0  0  0  0  0
   -1.7761   -0.3856    0.4276 C   0  0  0  0  0  0  0  0  0  0  0  0
   -5.6070   -1.2421    2.3384 H   0  0  0  0  0  0  0  0  0  0  0  0
   -2.4824   -0.9746    3.6920 H   0  0  0  0  0  0  0  0  0  0  0  0
   -0.0259   -0.5908    3.7790 H   0  0  0  0  0  0  0  0  0  0  0  0
    2.2160    0.2899    0.5498 H   0  0  0  0  0  0  0  0  0  0  0  0
    5.5874    1.3915   -2.2972 H   0  0  0  0  0  0  0  0  0  0  0  0
    2.4957    0.9743   -3.6909 H   0  0  0  0  0  0  0  0  0  0  0  0
    0.0484    0.5279   -3.8044 H   0  0  0  0  0  0  0  0  0  0  0  0
   -2.2310   -0.3196   -0.5529 H   0  0  0  0  0  0  0  0  0  0  0  0
  1  2  2  0
  2  3  1  0
  2  4  1  0
  4  5  2  0
  5  6  1  0
  6  7  2  0
  7  8  1  0
  8  9  1  0
  9 10  2  0
 10 11  1  0
 11 12  1  0
 12 13  2  0
 12 14  1  0
 11 15  2  0
 15 16  1  0
 16 17  2  0
  8 18  2  0
 18  4  1  0
 17  9  1  0
  3 19  1  0
  5 20  1  0
  6 21  1  0
 10 22  1  0
 14 23  1  0
 15 24  1  0
 16 25  1  0
 18 26  1  0
M  END
$$$$

     RDKit          3D

 26 27  0  0  0  0  0  0  0  0999 V2000
   -4.2127    1.5177   -1.2673 O   0  0  0  0  0  0  0  0  0  0  0  0
   -4.2283    0.3732   -0.8404 C   0  0  0  0  0  0  0  0  0  0  0  0
   -5.3560   -0.3557   -0.7651 O   0  0  0  0  0  0  0  0  0  0  0  0
   -3.0139   -0.3447   -0.3719 C   0  0  0  0  0  0  0  0  0  0  0  0
   -3.0548   -1.6479    0.1087 C   0  0  0  0  0  0  0  0  0  0  0  0
   -1.8660   -2.2243    0.5261 C   0  0  0  0  0  0  0  0  0  0  0  0
   -0.6897   -1.6040    0.4942 N   0  0  0  0  0  0  0  0  0  0  0  0
   -0.6584   -0.3475    0.0324 C   0  0  0  0  0  0  0  0  0  0  0  0
    0.6568    0.3425    0.0074 C   0  0  0  0  0  0  0  0  0  0  0  0
    1.7975   -0.3240    0.3916 C   0  0  0  0  0  0  0  0  0  0  0  0
    3.0182    0.3414    0.3587 C   0  0  0  0  0  0  0  0  0  0  0  0
    4.2477   -0.3863    0.7653 C   0  0  0  0  0  0  0  0  0  0  0  0
    4.2490   -1.5392    1.1684 O   0  0  0  0  0  0  0  0  0  0  0  0
    5.3740    0.3396    0.6598 O   0  0  0  0  0  0  0  0  0  0  0  0
    3.0378    1.6667   -0.0599 C   0  0  0  0  0  0  0  0  0  0  0  0
    1.8374    2.2540   -0.4235 C   0  0  0  0  0  0  0  0  0  0  0  0
    0.6694    1.6196   -0.3988 N   0  0  0  0  0  0  0  0  0  0  0  0
   -1.7867    0.3073   -0.4081 C   0  0  0  0  0  0  0  0  0  0  0  0
   -6.1050    0.1845   -1.0716 H   0  0  0  0  0  0  0  0  0  0  0  0
   -3.9889   -2.2079    0.1626 H   0  0  0  0  0  0  0  0  0  0  0  0
   -1.8481   -3.2399    0.9104 H   0  0  0  0  0  0  0  0  0  0  0  0
    1.7446   -1.3563    0.7161 H   0  0  0  0  0  0  0  0  0  0  0  0
    6.1274   -0.2165    0.9354 H   0  0  0  0  0  0  0  0  0  0  0  0
    3.9638    2.2385   -0.1008 H   0  0  0  0  0  0  0  0  0  0  0  0
    1.8013    3.2868   -0.7530 H   0  0  0  0  0  0  0  0  0  0  0  0
   -1.7164    1.3223   -0.7767 H   0  0  0  0  0  0  0  0  0  0  0  0
  1  2  2  0
  2  3  1  0
  2  4  1  0
  4  5  2  0
  5  6  1  0
  6  7  2  0
  7  8  1  0
  8  9  1  0
  9 10  2  0
 10 11  1  0
 11 12  1  0
 12 13  2  0
 12 14  1  0
 11 15  2  0
 15 16  1  0
 16 17  2  0
  8 18  2  0
 18  4  1  0
 17  9  1  0
  3 19  1  0
  5 20  1  0
  6 21  1  0
 10 22  1  0
 14 23  1  0
 15 24  1  0
 16 25  1  0
 18 26  1  0
M  END
$$$$

     RDKit          3D

 26 27  0  0  0  0  0  0  0  0999 V2000
   -3.4275   -1.4481   -2.8160 O   0  0  0  0  0  0  0  0  0  0  0  0
   -3.8048   -1.2183   -1.6773 C   0  0  0  0  0  0  0  0  0  0  0  0
   -5.0816   -1.3910   -1.2902 O   0  0  0  0  0  0  0  0  0  0  0  0
   -2.9096   -0.7243   -0.5984 C   0  0  0  0  0  0  0  0  0  0  0  0
   -3.3685   -0.4584    0.6855 C   0  0  0  0  0  0  0  0  0  0  0  0
   -2.4566   -0.0015    1.6230 C   0  0  0  0  0  0  0  0  0  0  0  0
   -1.1661    0.1926    1.3665 N   0  0  0  0  0  0  0  0  0  0  0  0
   -0.7288   -0.0708    0.1287 C   0  0  0  0  0  0  0  0  0  0  0  0
    0.7177    0.1348   -0.1387 C   0  0  0  0  0  0  0  0  0  0  0  0
    1.5626    0.5245    0.8762 C   0  0  0  0  0  0  0  0  0  0  0  0
    2.9132    0.7084    0.6020 C   0  0  0  0  0  0  0  0  0  0  0  0
    3.8246    1.1265    1.6986 C   0  0  0  0  0  0  0  0  0  0  0  0
    3.4596    1.3045    2.8502 O   0  0  0  0  0  0  0  0  0  0  0  0
    5.1020    1.2888    1.3144 O   0  0  0  0  0  0  0  0  0  0  0  0
    3.3591    0.4899   -0.6961 C   0  0  0  0  0  0  0  0  0  0  0  0
    2.4330    0.0990   -1.6488 C   0  0  0  0  0  0  0  0  0  0  0  0
    1.1410   -0.0794   -1.3920 N   0  0  0  0  0  0  0  0  0  0  0  0
   -1.5615   -0.5191   -0.8728 C   0  0  0  0  0  0  0  0  0  0  0  0
   -5.6040   -1.6905   -2.0543 H   0  0  0  0  0  0  0  0  0  0  0  0
   -4.4141   -0.5985    0.9582 H   0  0  0  0  0  0  0  0  0  0  0  0
   -2.7710    0.2237    2.6370 H   0  0  0  0  0  0  0  0  0  0  0  0
    1.1800    0.6893    1.8768 H   0  0  0  0  0  0  0  0  0  0  0  0
    5.6287    1.5891    2.0741 H   0  0  0  0  0  0  0  0  0  0  0  0
    4.4055    0.6204   -0.9686 H   0  0  0  0  0  0  0  0  0  0  0  0
    2.7349   -0.0824   -2.6748 H   0  0  0  0  0  0  0  0  0  0  0  0
   -1.1678   -0.7091   -1.8631 H   0  0  0  0  0  0  0  0  0  0  0  0
  1  2  2  0
  2  3  1  0
  2  4  1  0
  4  5  2  0
  5  6  1  0
  6  7  2  0
  7  8  1  0
  8  9  1  0
  9 10  2  0
 10 11  1  0
 11 12  1  0
 12 13  2  0
 12 14  1  0
 11 15  2  0
 15 16  1  0
 16 17  2  0
  8 18  2  0
 18  4  1  0
 17  9  1  0
  3 19  1  0
  5 20  1  0
  6 21  1  0
 10 22  1  0
 14 23  1  0
 15 24  1  0
 16 25  1  0
 18 26  1  0
M  END
$$$$

     RDKit          3D

 26 27  0  0  0  0  0  0  0  0999 V2000
   -0.0855    3.6794    2.8636 O   0  0  0  0  0  0  0  0  0  0  0  0
   -0.5036    3.9319    1.7446 C   0  0  0  0  0  0  0  0  0  0  0  0
   -0.9412    5.1539    1.3988 O   0  0  0  0  0  0  0  0  0  0  0  0
   -0.5798    2.9316    0.6492 C   0  0  0  0  0  0  0  0  0  0  0  0
   -1.0796    3.2395   -0.6116 C   0  0  0  0  0  0  0  0  0  0  0  0
   -1.1123    2.2343   -1.5639 C   0  0  0  0  0  0  0  0  0  0  0  0
   -0.6939    0.9910   -1.3410 N   0  0  0  0  0  0  0  0  0  0  0  0
   -0.2152    0.7018   -0.1217 C   0  0  0  0  0  0  0  0  0  0  0  0
    0.2448   -0.6917    0.1130 C   0  0  0  0  0  0  0  0  0  0  0  0
    0.1596   -1.6259   -0.8938 C   0  0  0  0  0  0  0  0  0  0  0  0
    0.5855   -2.9276   -0.6534 C   0  0  0  0  0  0  0  0  0  0  0  0
    0.4784   -3.9390   -1.7353 C   0  0  0  0  0  0  0  0  0  0  0  0
    0.0598   -3.6878   -2.8552 O   0  0  0  0  0  0  0  0  0  0  0  0
    0.8908   -5.1681   -1.3761 O   0  0  0  0  0  0  0  0  0  0  0  0
    1.0965   -3.2350    0.6024 C   0  0  0  0  0  0  0  0  0  0  0  0
    1.1466   -2.2267    1.5500 C   0  0  0  0  0  0  0  0  0  0  0  0
    0.7335   -0.9831    1.3259 N   0  0  0  0  0  0  0  0  0  0  0  0
   -0.1400    1.6337    0.8877 C   0  0  0  0  0  0  0  0  0  0  0  0
   -0.8776    5.7387    2.1744 H   0  0  0  0  0  0  0  0  0  0  0  0
   -1.4400    4.2394   -0.8548 H   0  0  0  0  0  0  0  0  0  0  0  0
   -1.4958    2.4303   -2.5616 H   0  0  0  0  0  0  0  0  0  0  0  0
   -0.2356   -1.3458   -1.8631 H   0  0  0  0  0  0  0  0  0  0  0  0
    0.7667   -5.7718   -2.1274 H   0  0  0  0  0  0  0  0  0  0  0  0
    1.4491   -4.2369    0.8451 H   0  0  0  0  0  0  0  0  0  0  0  0
    1.5343   -2.4220    2.5450 H   0  0  0  0  0  0  0  0  0  0  0  0
    0.2544    1.3560    1.8593 H   0  0  0  0  0  0  0  0  0  0  0  0
  1  2  2  0
  2  3  1  0
  2  4  1  0
  4  5  2  0
  5  6  1  0
  6  7  2  0
  7  8  1  0
  8  9  1  0
  9 10  2  0
 10 11  1  0
 11 12  1  0
 12 13  2  0
 12 14  1  0
 11 15  2  0
 15 16  1  0
 16 17  2  0
  8 18  2  0
 18  4  1  0
 17  9  1  0
  3 19  1  0
  5 20  1  0
  6 21  1  0
 10 22  1  0
 14 23  1  0
 15 24  1  0
 16 25  1  0
 18 26  1  0
M  END
$$$$
