
     RDKit          3D

 48 52  0  0  0  0  0  0  0  0999 V2000
   -2.4031   -0.9498   -4.5513 C   0  0  0  0  0  0  0  0  0  0  0  0
   -1.5724   -0.4296   -3.4205 C   0  0  0  0  0  0  0  0  0  0  0  0
   -0.7542    0.6839   -3.6176 C   0  0  0  0  0  0  0  0  0  0  0  0
    0.0269    1.1755   -2.5960 C   0  0  0  0  0  0  0  0  0  0  0  0
    0.8234    2.4045   -2.8115 C   0  0  0  0  0  0  0  0  0  0  0  0
    1.6379    2.5213   -3.9365 C   0  0  0  0  0  0  0  0  0  0  0  0
    2.3582    3.6798   -4.1773 C   0  0  0  0  0  0  0  0  0  0  0  0
    2.2721    4.7565   -3.2942 C   0  0  0  0  0  0  0  0  0  0  0  0
    1.4574    4.6549   -2.1720 C   0  0  0  0  0  0  0  0  0  0  0  0
    0.7418    3.4862   -1.9305 C   0  0  0  0  0  0  0  0  0  0  0  0
    0.0069    0.4751   -1.3474 C   0  0  0  0  0  0  0  0  0  0  0  0
    0.8440    0.8014   -0.2465 C   0  0  0  0  0  0  0  0  0  0  0  0
    0.7501    0.1338    0.9311 C   0  0  0  0  0  0  0  0  0  0  0  0
   -0.1714   -0.9285    1.1107 C   0  0  0  0  0  0  0  0  0  0  0  0
   -0.3213   -1.6281    2.3490 C   0  0  0  0  0  0  0  0  0  0  0  0
    0.3726   -1.1924    3.5808 C   0  0  0  0  0  0  0  0  0  0  0  0
    0.1690    0.0826    4.1129 C   0  0  0  0  0  0  0  0  0  0  0  0
    0.7971    0.4632    5.2937 C   0  0  0  0  0  0  0  0  0  0  0  0
    1.6495   -0.4176    5.9532 C   0  0  0  0  0  0  0  0  0  0  0  0
    1.8659   -1.6880    5.4201 C   0  0  0  0  0  0  0  0  0  0  0  0
    1.2274   -2.0684    4.2462 C   0  0  0  0  0  0  0  0  0  0  0  0
   -1.1594   -2.7172    2.3720 C   0  0  0  0  0  0  0  0  0  0  0  0
   -1.8817   -3.0815    1.2323 C   0  0  0  0  0  0  0  0  0  0  0  0
   -2.7798   -4.2774    1.2650 C   0  0  0  0  0  0  0  0  0  0  0  0
   -1.7868   -2.3983    0.0804 N   0  0  0  0  0  0  0  0  0  0  0  0
   -0.9627   -1.3568    0.0193 C   0  0  0  0  0  0  0  0  0  0  0  0
   -0.8757   -0.6322   -1.2413 C   0  0  0  0  0  0  0  0  0  0  0  0
   -1.6334   -1.0668   -2.2417 N   0  0  0  0  0  0  0  0  0  0  0  0
   -2.7861   -0.1256   -5.1620 H   0  0  0  0  0  0  0  0  0  0  0  0
   -3.2352   -1.5283   -4.1592 H   0  0  0  0  0  0  0  0  0  0  0  0
   -1.8096   -1.5927   -5.1955 H   0  0  0  0  0  0  0  0  0  0  0  0
   -0.7448    1.1712   -4.5877 H   0  0  0  0  0  0  0  0  0  0  0  0
    1.6977    1.6856   -4.6250 H   0  0  0  0  0  0  0  0  0  0  0  0
    2.9940    3.7432   -5.0487 H   0  0  0  0  0  0  0  0  0  0  0  0
    2.8325    5.6583   -3.4767 H   0  0  0  0  0  0  0  0  0  0  0  0
    1.3775    5.4862   -1.4766 H   0  0  0  0  0  0  0  0  0  0  0  0
    0.1043    3.4116   -1.0465 H   0  0  0  0  0  0  0  0  0  0  0  0
    1.5757    1.5810   -0.3599 H   0  0  0  0  0  0  0  0  0  0  0  0
    1.3885    0.3949    1.7565 H   0  0  0  0  0  0  0  0  0  0  0  0
   -0.4880    0.7784    3.5908 H   0  0  0  0  0  0  0  0  0  0  0  0
    0.6173    1.4537    5.7005 H   0  0  0  0  0  0  0  0  0  0  0  0
    2.1412   -0.1160    6.8603 H   0  0  0  0  0  0  0  0  0  0  0  0
    2.5321   -2.3790    5.9158 H   0  0  0  0  0  0  0  0  0  0  0  0
    1.3869   -3.0611    3.8399 H   0  0  0  0  0  0  0  0  0  0  0  0
   -1.2635   -3.2992    3.2838 H   0  0  0  0  0  0  0  0  0  0  0  0
   -2.2480   -5.1562    0.9097 H   0  0  0  0  0  0  0  0  0  0  0  0
   -3.6364   -4.1120    0.6150 H   0  0  0  0  0  0  0  0  0  0  0  0
   -3.1343   -4.4800    2.2827 H   0  0  0  0  0  0  0  0  0  0  0  0
  1  2  1  0
  2  3  2  0
  3  4  1  0
  4  5  1  0
  5  6  2  0
  6  7  1  0
  7  8  2  0
  8  9  1  0
  9 10  2  0
  4 11  2  0
 11 12  1  0
 12 13  2  0
 13 14  1  0
 14 15  2  0
 15 16  1  0
 16 17  2  0
 17 18  1  0
 18 19  2  0
 19 20  1  0
 20 21  2  0
 15 22  1  0
 22 23  2  0
 23 24  1  0
 23 25  1  0
 25 26  2  0
 26 27  1  0
 27 28  2  0
 28  2  1  0
 10  5  1  0
 27 11  1  0
 26 14  1  0
 21 16  1  0
  1 29  1  0
  1 30  1  0
  1 31  1  0
  3 32  1  0
  6 33  1  0
  7 34  1  0
  8 35  1  0
  9 36  1  0
 10 37  1  0
 12 38  1  0
 13 39  1  0
 17 40  1  0
 18 41  1  0
 19 42  1  0
 20 43  1  0
 21 44  1  0
 22 45  1  0
 24 46  1  0
 24 47  1  0
 24 48  1  0
M  END
$$$$

     RDKit          3D

 48 52  0  0  0  0  0  0  0  0999 V2000
   -2.1812    3.4460   -3.3130 C   0  0  0  0  0  0  0  0  0  0  0  0
   -1.8703    2.3363   -2.3599 C   0  0  0  0  0  0  0  0  0  0  0  0
   -2.8559    1.3977   -2.0534 C   0  0  0  0  0  0  0  0  0  0  0  0
   -2.5839    0.3365   -1.2214 C   0  0  0  0  0  0  0  0  0  0  0  0
   -3.6081   -0.7028   -0.9768 C   0  0  0  0  0  0  0  0  0  0  0  0
   -4.8737   -0.3520   -0.5092 C   0  0  0  0  0  0  0  0  0  0  0  0
   -5.8455   -1.3157   -0.2939 C   0  0  0  0  0  0  0  0  0  0  0  0
   -5.5777   -2.6560   -0.5664 C   0  0  0  0  0  0  0  0  0  0  0  0
   -4.3226   -3.0150   -1.0490 C   0  0  0  0  0  0  0  0  0  0  0  0
   -3.3434   -2.0475   -1.2456 C   0  0  0  0  0  0  0  0  0  0  0  0
   -1.2807    0.2745   -0.6351 C   0  0  0  0  0  0  0  0  0  0  0  0
   -0.9074   -0.7055    0.3241 C   0  0  0  0  0  0  0  0  0  0  0  0
    0.3429   -0.7364    0.8500 C   0  0  0  0  0  0  0  0  0  0  0  0
    1.3339    0.2014    0.4615 C   0  0  0  0  0  0  0  0  0  0  0  0
    2.6681    0.1912    0.9803 C   0  0  0  0  0  0  0  0  0  0  0  0
    3.1620   -0.8539    1.9052 C   0  0  0  0  0  0  0  0  0  0  0  0
    3.7352   -0.4894    3.1248 C   0  0  0  0  0  0  0  0  0  0  0  0
    4.2458   -1.4430    3.9908 C   0  0  0  0  0  0  0  0  0  0  0  0
    4.2018   -2.7917    3.6469 C   0  0  0  0  0  0  0  0  0  0  0  0
    3.6418   -3.1682    2.4289 C   0  0  0  0  0  0  0  0  0  0  0  0
    3.1202   -2.2070    1.5652 C   0  0  0  0  0  0  0  0  0  0  0  0
    3.5094    1.2055    0.5902 C   0  0  0  0  0  0  0  0  0  0  0  0
    3.0849    2.1809   -0.3131 C   0  0  0  0  0  0  0  0  0  0  0  0
    4.0303    3.2693   -0.7128 C   0  0  0  0  0  0  0  0  0  0  0  0
    1.8463    2.1847   -0.8294 N   0  0  0  0  0  0  0  0  0  0  0  0
    0.9976    1.2334   -0.4516 C   0  0  0  0  0  0  0  0  0  0  0  0
   -0.3482    1.2750   -1.0087 C   0  0  0  0  0  0  0  0  0  0  0  0
   -0.6304    2.2698   -1.8459 N   0  0  0  0  0  0  0  0  0  0  0  0
   -1.9755    3.1302   -4.3378 H   0  0  0  0  0  0  0  0  0  0  0  0
   -1.5632    4.3087   -3.0913 H   0  0  0  0  0  0  0  0  0  0  0  0
   -3.2428    3.7235   -3.2472 H   0  0  0  0  0  0  0  0  0  0  0  0
   -3.8504    1.5028   -2.4808 H   0  0  0  0  0  0  0  0  0  0  0  0
   -5.0834    0.6927   -0.3154 H   0  0  0  0  0  0  0  0  0  0  0  0
   -6.8114   -1.0245    0.0989 H   0  0  0  0  0  0  0  0  0  0  0  0
   -6.3291   -3.4088   -0.3980 H   0  0  0  0  0  0  0  0  0  0  0  0
   -4.1005   -4.0527   -1.2727 H   0  0  0  0  0  0  0  0  0  0  0  0
   -2.3567   -2.3328   -1.6174 H   0  0  0  0  0  0  0  0  0  0  0  0
   -1.6449   -1.4220    0.6379 H   0  0  0  0  0  0  0  0  0  0  0  0
    0.6022   -1.4793    1.5840 H   0  0  0  0  0  0  0  0  0  0  0  0
    3.7785    0.5608    3.3869 H   0  0  0  0  0  0  0  0  0  0  0  0
    4.6708   -1.1385    4.9382 H   0  0  0  0  0  0  0  0  0  0  0  0
    4.5972   -3.5377    4.3115 H   0  0  0  0  0  0  0  0  0  0  0  0
    3.6029   -4.2158    2.1467 H   0  0  0  0  0  0  0  0  0  0  0  0
    2.6845   -2.5089    0.6140 H   0  0  0  0  0  0  0  0  0  0  0  0
    4.5179    1.2545    0.9913 H   0  0  0  0  0  0  0  0  0  0  0  0
    4.2898    3.8851    0.1522 H   0  0  0  0  0  0  0  0  0  0  0  0
    3.5640    3.8915   -1.4719 H   0  0  0  0  0  0  0  0  0  0  0  0
    4.9589    2.8531   -1.1115 H   0  0  0  0  0  0  0  0  0  0  0  0
  1  2  1  0
  2  3  2  0
  3  4  1  0
  4  5  1  0
  5  6  2  0
  6  7  1  0
  7  8  2  0
  8  9  1  0
  9 10  2  0
  4 11  2  0
 11 12  1  0
 12 13  2  0
 13 14  1  0
 14 15  2  0
 15 16  1  0
 16 17  2  0
 17 18  1  0
 18 19  2  0
 19 20  1  0
 20 21  2  0
 15 22  1  0
 22 23  2  0
 23 24  1  0
 23 25  1  0
 25 26  2  0
 26 27  1  0
 27 28  2  0
 28  2  1  0
 10  5  1  0
 27 11  1  0
 26 14  1  0
 21 16  1  0
  1 29  1  0
  1 30  1  0
  1 31  1  0
  3 32  1  0
  6 33  1  0
  7 34  1  0
  8 35  1  0
  9 36  1  0
 10 37  1  0
 12 38  1  0
 13 39  1  0
 17 40  1  0
 18 41  1  0
 19 42  1  0
 20 43  1  0
 21 44  1  0
 22 45  1  0
 24 46  1  0
 24 47  1  0
 24 48  1  0
M  END
$$$$

     RDKit          3D

 48 52  0  0  0  0  0  0  0  0999 V2000
   -2.0546   -3.3140   -3.5216 C   0  0  0  0  0  0  0  0  0  0  0  0
   -1.6632   -2.5299   -2.3082 C   0  0  0  0  0  0  0  0  0  0  0  0
   -2.1972   -2.8812   -1.0666 C   0  0  0  0  0  0  0  0  0  0  0  0
   -1.8387   -2.1960    0.0683 C   0  0  0  0  0  0  0  0  0  0  0  0
   -2.3221   -2.6461    1.3935 C   0  0  0  0  0  0  0  0  0  0  0  0
   -1.4234   -2.9374    2.4262 C   0  0  0  0  0  0  0  0  0  0  0  0
   -1.8807   -3.4039    3.6521 C   0  0  0  0  0  0  0  0  0  0  0  0
   -3.2418   -3.5689    3.8761 C   0  0  0  0  0  0  0  0  0  0  0  0
   -4.1451   -3.2769    2.8527 C   0  0  0  0  0  0  0  0  0  0  0  0
   -3.6826   -2.8291    1.6210 C   0  0  0  0  0  0  0  0  0  0  0  0
   -0.9720   -1.0691   -0.0777 C   0  0  0  0  0  0  0  0  0  0  0  0
   -0.6234   -0.2121    0.9997 C   0  0  0  0  0  0  0  0  0  0  0  0
    0.2321    0.8244    0.8258 C   0  0  0  0  0  0  0  0  0  0  0  0
    0.8134    1.0986   -0.4419 C   0  0  0  0  0  0  0  0  0  0  0  0
    1.7510    2.1582   -0.6636 C   0  0  0  0  0  0  0  0  0  0  0  0
    2.2934    2.9861    0.4387 C   0  0  0  0  0  0  0  0  0  0  0  0
    2.8998    2.4063    1.5557 C   0  0  0  0  0  0  0  0  0  0  0  0
    3.4321    3.1999    2.5643 C   0  0  0  0  0  0  0  0  0  0  0  0
    3.3633    4.5870    2.4789 C   0  0  0  0  0  0  0  0  0  0  0  0
    2.7642    5.1739    1.3657 C   0  0  0  0  0  0  0  0  0  0  0  0
    2.2440    4.3782    0.3561 C   0  0  0  0  0  0  0  0  0  0  0  0
    2.1604    2.3830   -1.9586 C   0  0  0  0  0  0  0  0  0  0  0  0
    1.7130    1.5700   -3.0033 C   0  0  0  0  0  0  0  0  0  0  0  0
    2.1759    1.8363   -4.4011 C   0  0  0  0  0  0  0  0  0  0  0  0
    0.8693    0.5476   -2.7998 N   0  0  0  0  0  0  0  0  0  0  0  0
    0.4343    0.3206   -1.5642 C   0  0  0  0  0  0  0  0  0  0  0  0
   -0.4812   -0.7948   -1.3758 C   0  0  0  0  0  0  0  0  0  0  0  0
   -0.8122   -1.5035   -2.4516 N   0  0  0  0  0  0  0  0  0  0  0  0
   -1.7910   -4.3709   -3.4064 H   0  0  0  0  0  0  0  0  0  0  0  0
   -3.1351   -3.2626   -3.6728 H   0  0  0  0  0  0  0  0  0  0  0  0
   -1.5492   -2.9214   -4.3978 H   0  0  0  0  0  0  0  0  0  0  0  0
   -2.9001   -3.7068   -1.0067 H   0  0  0  0  0  0  0  0  0  0  0  0
   -0.3542   -2.8029    2.2550 H   0  0  0  0  0  0  0  0  0  0  0  0
   -1.1661   -3.6338    4.4381 H   0  0  0  0  0  0  0  0  0  0  0  0
   -3.5959   -3.9124    4.8328 H   0  0  0  0  0  0  0  0  0  0  0  0
   -5.2074   -3.3939    3.0186 H   0  0  0  0  0  0  0  0  0  0  0  0
   -4.3833   -2.6169    0.8221 H   0  0  0  0  0  0  0  0  0  0  0  0
   -1.0619   -0.4008    1.9657 H   0  0  0  0  0  0  0  0  0  0  0  0
    0.4782    1.4627    1.6569 H   0  0  0  0  0  0  0  0  0  0  0  0
    2.9593    1.3190    1.6232 H   0  0  0  0  0  0  0  0  0  0  0  0
    3.9007    2.7277    3.4230 H   0  0  0  0  0  0  0  0  0  0  0  0
    3.7660    5.1973    3.2671 H   0  0  0  0  0  0  0  0  0  0  0  0
    2.7058    6.2514    1.2882 H   0  0  0  0  0  0  0  0  0  0  0  0
    1.7995    4.8388   -0.5191 H   0  0  0  0  0  0  0  0  0  0  0  0
    2.8485    3.1954   -2.1725 H   0  0  0  0  0  0  0  0  0  0  0  0
    3.2662    1.9092   -4.4413 H   0  0  0  0  0  0  0  0  0  0  0  0
    1.8450    1.0307   -5.0530 H   0  0  0  0  0  0  0  0  0  0  0  0
    1.7669    2.7832   -4.7622 H   0  0  0  0  0  0  0  0  0  0  0  0
  1  2  1  0
  2  3  2  0
  3  4  1  0
  4  5  1  0
  5  6  2  0
  6  7  1  0
  7  8  2  0
  8  9  1  0
  9 10  2  0
  4 11  2  0
 11 12  1  0
 12 13  2  0
 13 14  1  0
 14 15  2  0
 15 16  1  0
 16 17  2  0
 17 18  1  0
 18 19  2  0
 19 20  1  0
 20 21  2  0
 15 22  1  0
 22 23  2  0
 23 24  1  0
 23 25  1  0
 25 26  2  0
 26 27  1  0
 27 28  2  0
 28  2  1  0
 10  5  1  0
 27 11  1  0
 26 14  1  0
 21 16  1  0
  1 29  1  0
  1 30  1  0
  1 31  1  0
  3 32  1  0
  6 33  1  0
  7 34  1  0
  8 35  1  0
  9 36  1  0
 10 37  1  0
 12 38  1  0
 13 39  1  0
 17 40  1  0
 18 41  1  0
 19 42  1  0
 20 43  1  0
 21 44  1  0
 22 45  1  0
 24 46  1  0
 24 47  1  0
 24 48  1  0
M  END
$$$$

     RDKit          3D

 48 52  0  0  0  0  0  0  0  0999 V2000
    2.4055    3.4448   -3.1175 C   0  0  0  0  0  0  0  0  0  0  0  0
    1.4302    2.6161   -2.3413 C   0  0  0  0  0  0  0  0  0  0  0  0
    0.0594    2.8395   -2.4743 C   0  0  0  0  0  0  0  0  0  0  0  0
   -0.8497    2.0885   -1.7608 C   0  0  0  0  0  0  0  0  0  0  0  0
   -2.2995    2.2889   -1.9822 C   0  0  0  0  0  0  0  0  0  0  0  0
   -2.8496    3.5683   -1.9039 C   0  0  0  0  0  0  0  0  0  0  0  0
   -4.1942    3.7814   -2.1531 C   0  0  0  0  0  0  0  0  0  0  0  0
   -5.0222    2.7130   -2.4980 C   0  0  0  0  0  0  0  0  0  0  0  0
   -4.4838    1.4340   -2.5887 C   0  0  0  0  0  0  0  0  0  0  0  0
   -3.1320    1.2216   -2.3253 C   0  0  0  0  0  0  0  0  0  0  0  0
   -0.3344    1.1199   -0.8412 C   0  0  0  0  0  0  0  0  0  0  0  0
   -1.1500    0.3687    0.0456 C   0  0  0  0  0  0  0  0  0  0  0  0
   -0.6176   -0.5527    0.8871 C   0  0  0  0  0  0  0  0  0  0  0  0
    0.7749   -0.8342    0.8909 C   0  0  0  0  0  0  0  0  0  0  0  0
    1.3741   -1.8506    1.7007 C   0  0  0  0  0  0  0  0  0  0  0  0
    0.5733   -2.7895    2.5157 C   0  0  0  0  0  0  0  0  0  0  0  0
    0.8821   -2.9910    3.8612 C   0  0  0  0  0  0  0  0  0  0  0  0
    0.1711   -3.8968    4.6291 C   0  0  0  0  0  0  0  0  0  0  0  0
   -0.8657   -4.6334    4.0571 C   0  0  0  0  0  0  0  0  0  0  0  0
   -1.1755   -4.4502    2.7134 C   0  0  0  0  0  0  0  0  0  0  0  0
   -0.4641   -3.5309    1.9486 C   0  0  0  0  0  0  0  0  0  0  0  0
    2.7459   -1.9579    1.6829 C   0  0  0  0  0  0  0  0  0  0  0  0
    3.5162   -1.1335    0.8617 C   0  0  0  0  0  0  0  0  0  0  0  0
    5.0052   -1.2796    0.8503 C   0  0  0  0  0  0  0  0  0  0  0  0
    2.9624   -0.1996    0.0719 N   0  0  0  0  0  0  0  0  0  0  0  0
    1.6414   -0.0581    0.0831 C   0  0  0  0  0  0  0  0  0  0  0  0
    1.0719    0.9544   -0.7936 C   0  0  0  0  0  0  0  0  0  0  0  0
    1.9218    1.6813   -1.5128 N   0  0  0  0  0  0  0  0  0  0  0  0
    1.9693    3.7919   -4.0612 H   0  0  0  0  0  0  0  0  0  0  0  0
    2.7058    4.3141   -2.5406 H   0  0  0  0  0  0  0  0  0  0  0  0
    3.2962    2.8589   -3.3322 H   0  0  0  0  0  0  0  0  0  0  0  0
   -0.2946    3.6096   -3.1534 H   0  0  0  0  0  0  0  0  0  0  0  0
   -2.2000    4.3966   -1.6446 H   0  0  0  0  0  0  0  0  0  0  0  0
   -4.6028    4.7801   -2.0750 H   0  0  0  0  0  0  0  0  0  0  0  0
   -6.0686    2.8770   -2.6901 H   0  0  0  0  0  0  0  0  0  0  0  0
   -5.1122    0.5938   -2.8639 H   0  0  0  0  0  0  0  0  0  0  0  0
   -2.7176    0.2153   -2.3950 H   0  0  0  0  0  0  0  0  0  0  0  0
   -2.2106    0.5621    0.0547 H   0  0  0  0  0  0  0  0  0  0  0  0
   -1.2507   -1.0812    1.5739 H   0  0  0  0  0  0  0  0  0  0  0  0
    1.6971   -2.4282    4.2994 H   0  0  0  0  0  0  0  0  0  0  0  0
    0.4139   -4.0285    5.6756 H   0  0  0  0  0  0  0  0  0  0  0  0
   -1.4232   -5.3403    4.6465 H   0  0  0  0  0  0  0  0  0  0  0  0
   -1.9721   -5.0255    2.2509 H   0  0  0  0  0  0  0  0  0  0  0  0
   -0.7085   -3.3974    0.8950 H   0  0  0  0  0  0  0  0  0  0  0  0
    3.2368   -2.6988    2.3078 H   0  0  0  0  0  0  0  0  0  0  0  0
    5.4115   -1.1642    1.8604 H   0  0  0  0  0  0  0  0  0  0  0  0
    5.4397   -0.5300    0.1967 H   0  0  0  0  0  0  0  0  0  0  0  0
    5.2935   -2.2680    0.4888 H   0  0  0  0  0  0  0  0  0  0  0  0
  1  2  1  0
  2  3  2  0
  3  4  1  0
  4  5  1  0
  5  6  2  0
  6  7  1  0
  7  8  2  0
  8  9  1  0
  9 10  2  0
  4 11  2  0
 11 12  1  0
 12 13  2  0
 13 14  1  0
 14 15  2  0
 15 16  1  0
 16 17  2  0
 17 18  1  0
 18 19  2  0
 19 20  1  0
 20 21  2  0
 15 22  1  0
 22 23  2  0
 23 24  1  0
 23 25  1  0
 25 26  2  0
 26 27  1  0
 27 28  2  0
 28  2  1  0
 10  5  1  0
 27 11  1  0
 26 14  1  0
 21 16  1  0
  1 29  1  0
  1 30  1  0
  1 31  1  0
  3 32  1  0
  6 33  1  0
  7 34  1  0
  8 35  1  0
  9 36  1  0
 10 37  1  0
 12 38  1  0
 13 39  1  0
 17 40  1  0
 18 41  1  0
 19 42  1  0
 20 43  1  0
 21 44  1  0
 22 45  1  0
 24 46  1  0
 24 47  1  0
 24 48  1  0
M  END
$$$$

     RDKit          3D

 48 52  0  0  0  0  0  0  0  0999 V2000
   -3.6795    1.6482   -3.3593 C   0  0  0  0  0  0  0  0  0  0  0  0
   -2.8510    0.9663   -2.3175 C   0  0  0  0  0  0  0  0  0  0  0  0
   -3.3787   -0.1365   -1.6452 C   0  0  0  0  0  0  0  0  0  0  0  0
   -2.6310   -0.8211   -0.7168 C   0  0  0  0  0  0  0  0  0  0  0  0
   -3.1796   -2.0360   -0.0778 C   0  0  0  0  0  0  0  0  0  0  0  0
   -4.4136   -1.9878    0.5705 C   0  0  0  0  0  0  0  0  0  0  0  0
   -4.9575   -3.1255    1.1455 C   0  0  0  0  0  0  0  0  0  0  0  0
   -4.2845   -4.3428    1.0709 C   0  0  0  0  0  0  0  0  0  0  0  0
   -3.0578   -4.4064    0.4183 C   0  0  0  0  0  0  0  0  0  0  0  0
   -2.5116   -3.2594   -0.1495 C   0  0  0  0  0  0  0  0  0  0  0  0
   -1.3208   -0.3251   -0.4204 C   0  0  0  0  0  0  0  0  0  0  0  0
   -0.4742   -0.8992    0.5672 C   0  0  0  0  0  0  0  0  0  0  0  0
    0.7586   -0.3936    0.8205 C   0  0  0  0  0  0  0  0  0  0  0  0
    1.2506    0.7362    0.1161 C   0  0  0  0  0  0  0  0  0  0  0  0
    2.5440    1.2978    0.3550 C   0  0  0  0  0  0  0  0  0  0  0  0
    3.4712    0.6990    1.3394 C   0  0  0  0  0  0  0  0  0  0  0  0
    4.3132   -0.3497    0.9703 C   0  0  0  0  0  0  0  0  0  0  0  0
    5.2154   -0.8832    1.8868 C   0  0  0  0  0  0  0  0  0  0  0  0
    5.2780   -0.3850    3.1832 C   0  0  0  0  0  0  0  0  0  0  0  0
    4.4355    0.6565    3.5601 C   0  0  0  0  0  0  0  0  0  0  0  0
    3.5302    1.1895    2.6434 C   0  0  0  0  0  0  0  0  0  0  0  0
    2.9008    2.4090   -0.3647 C   0  0  0  0  0  0  0  0  0  0  0  0
    2.0283    2.9622   -1.3074 C   0  0  0  0  0  0  0  0  0  0  0  0
    2.4382    4.1863   -2.0635 C   0  0  0  0  0  0  0  0  0  0  0  0
    0.8178    2.4348   -1.5548 N   0  0  0  0  0  0  0  0  0  0  0  0
    0.4389    1.3600   -0.8650 C   0  0  0  0  0  0  0  0  0  0  0  0
   -0.8825    0.8158   -1.1414 C   0  0  0  0  0  0  0  0  0  0  0  0
   -1.6166    1.4281   -2.0654 N   0  0  0  0  0  0  0  0  0  0  0  0
   -3.8421    0.9885   -4.2144 H   0  0  0  0  0  0  0  0  0  0  0  0
   -4.6623    1.9081   -2.9609 H   0  0  0  0  0  0  0  0  0  0  0  0
   -3.1786    2.5473   -3.7001 H   0  0  0  0  0  0  0  0  0  0  0  0
   -4.3888   -0.4627   -1.8754 H   0  0  0  0  0  0  0  0  0  0  0  0
   -4.9408   -1.0430    0.6083 H   0  0  0  0  0  0  0  0  0  0  0  0
   -5.9081   -3.0643    1.6578 H   0  0  0  0  0  0  0  0  0  0  0  0
   -4.7058   -5.2258    1.5174 H   0  0  0  0  0  0  0  0  0  0  0  0
   -2.5245   -5.3469    0.3497 H   0  0  0  0  0  0  0  0  0  0  0  0
   -1.5527   -3.3120   -0.6653 H   0  0  0  0  0  0  0  0  0  0  0  0
   -0.8324   -1.7506    1.1173 H   0  0  0  0  0  0  0  0  0  0  0  0
    1.3891   -0.8447    1.5704 H   0  0  0  0  0  0  0  0  0  0  0  0
    4.2620   -0.7422   -0.0376 H   0  0  0  0  0  0  0  0  0  0  0  0
    5.8669   -1.6947    1.5875 H   0  0  0  0  0  0  0  0  0  0  0  0
    5.9690   -0.8050    3.8913 H   0  0  0  0  0  0  0  0  0  0  0  0
    4.4754    1.0488    4.5667 H   0  0  0  0  0  0  0  0  0  0  0  0
    2.8775    2.0031    2.9403 H   0  0  0  0  0  0  0  0  0  0  0  0
    3.8725    2.8700   -0.1987 H   0  0  0  0  0  0  0  0  0  0  0  0
    3.3725    4.0149   -2.6060 H   0  0  0  0  0  0  0  0  0  0  0  0
    1.6589    4.4554   -2.7688 H   0  0  0  0  0  0  0  0  0  0  0  0
    2.6104    5.0176   -1.3779 H   0  0  0  0  0  0  0  0  0  0  0  0
  1  2  1  0
  2  3  2  0
  3  4  1  0
  4  5  1  0
  5  6  2  0
  6  7  1  0
  7  8  2  0
  8  9  1  0
  9 10  2  0
  4 11  2  0
 11 12  1  0
 12 13  2  0
 13 14  1  0
 14 15  2  0
 15 16  1  0
 16 17  2  0
 17 18  1  0
 18 19  2  0
 19 20  1  0
 20 21  2  0
 15 22  1  0
 22 23  2  0
 23 24  1  0
 23 25  1  0
 25 26  2  0
 26 27  1  0
 27 28  2  0
 28  2  1  0
 10  5  1  0
 27 11  1  0
 26 14  1  0
 21 16  1  0
  1 29  1  0
  1 30  1  0
  1 31  1  0
  3 32  1  0
  6 33  1  0
  7 34  1  0
  8 35  1  0
  9 36  1  0
 10 37  1  0
 12 38  1  0
 13 39  1  0
 17 40  1  0
 18 41  1  0
 19 42  1  0
 20 43  1  0
 21 44  1  0
 22 45  1  0
 24 46  1  0
 24 47  1  0
 24 48  1  0
M  END
$$$$

     RDKit          3D

 48 52  0  0  0  0  0  0  0  0999 V2000
    5.2304    0.5091    0.2170 C   0  0  0  0  0  0  0  0  0  0  0  0
    3.8089    0.1334   -0.0604 C   0  0  0  0  0  0  0  0  0  0  0  0
    3.5405   -0.8255   -1.0370 C   0  0  0  0  0  0  0  0  0  0  0  0
    2.2442   -1.1818   -1.3299 C   0  0  0  0  0  0  0  0  0  0  0  0
    1.9781   -2.1525   -2.4142 C   0  0  0  0  0  0  0  0  0  0  0  0
    1.1740   -1.8139   -3.5055 C   0  0  0  0  0  0  0  0  0  0  0  0
    0.9621   -2.7232   -4.5338 C   0  0  0  0  0  0  0  0  0  0  0  0
    1.5423   -3.9883   -4.4862 C   0  0  0  0  0  0  0  0  0  0  0  0
    2.3483   -4.3309   -3.4017 C   0  0  0  0  0  0  0  0  0  0  0  0
    2.5631   -3.4173   -2.3784 C   0  0  0  0  0  0  0  0  0  0  0  0
    1.1937   -0.5829   -0.5665 C   0  0  0  0  0  0  0  0  0  0  0  0
   -0.1735   -0.9421   -0.7107 C   0  0  0  0  0  0  0  0  0  0  0  0
   -1.1443   -0.3369    0.0167 C   0  0  0  0  0  0  0  0  0  0  0  0
   -0.8354    0.6953    0.9382 C   0  0  0  0  0  0  0  0  0  0  0  0
   -1.8300    1.3977    1.6898 C   0  0  0  0  0  0  0  0  0  0  0  0
   -3.2821    1.2172    1.4622 C   0  0  0  0  0  0  0  0  0  0  0  0
   -4.1426    1.0282    2.5475 C   0  0  0  0  0  0  0  0  0  0  0  0
   -5.5079    0.9028    2.3595 C   0  0  0  0  0  0  0  0  0  0  0  0
   -6.0538    0.9759    1.0785 C   0  0  0  0  0  0  0  0  0  0  0  0
   -5.2121    1.1723   -0.0106 C   0  0  0  0  0  0  0  0  0  0  0  0
   -3.8370    1.2874    0.1801 C   0  0  0  0  0  0  0  0  0  0  0  0
   -1.3925    2.2832    2.6465 C   0  0  0  0  0  0  0  0  0  0  0  0
   -0.0303    2.5302    2.8281 C   0  0  0  0  0  0  0  0  0  0  0  0
    0.4108    3.5175    3.8609 C   0  0  0  0  0  0  0  0  0  0  0  0
    0.9081    1.9127    2.0948 N   0  0  0  0  0  0  0  0  0  0  0  0
    0.5216    1.0315    1.1794 C   0  0  0  0  0  0  0  0  0  0  0  0
    1.5665    0.3803    0.4011 C   0  0  0  0  0  0  0  0  0  0  0  0
    2.8295    0.7251    0.6424 N   0  0  0  0  0  0  0  0  0  0  0  0
    5.7341    0.8192   -0.7035 H   0  0  0  0  0  0  0  0  0  0  0  0
    5.7823   -0.3480    0.6139 H   0  0  0  0  0  0  0  0  0  0  0  0
    5.2655    1.3240    0.9352 H   0  0  0  0  0  0  0  0  0  0  0  0
    4.3630   -1.2860   -1.5767 H   0  0  0  0  0  0  0  0  0  0  0  0
    0.7208   -0.8219   -3.5463 H   0  0  0  0  0  0  0  0  0  0  0  0
    0.3417   -2.4430   -5.3800 H   0  0  0  0  0  0  0  0  0  0  0  0
    1.3645   -4.6948   -5.2794 H   0  0  0  0  0  0  0  0  0  0  0  0
    2.8020   -5.3121   -3.3514 H   0  0  0  0  0  0  0  0  0  0  0  0
    3.2013   -3.6852   -1.5414 H   0  0  0  0  0  0  0  0  0  0  0  0
   -0.4293   -1.7091   -1.4221 H   0  0  0  0  0  0  0  0  0  0  0  0
   -2.1698   -0.6470   -0.0833 H   0  0  0  0  0  0  0  0  0  0  0  0
   -3.7207    0.9768    3.5428 H   0  0  0  0  0  0  0  0  0  0  0  0
   -6.1556    0.7409    3.2122 H   0  0  0  0  0  0  0  0  0  0  0  0
   -7.1153    0.8776    0.9305 H   0  0  0  0  0  0  0  0  0  0  0  0
   -5.6186    1.2375   -1.0133 H   0  0  0  0  0  0  0  0  0  0  0  0
   -3.1859    1.4519   -0.6796 H   0  0  0  0  0  0  0  0  0  0  0  0
   -2.1151    2.8066    3.2663 H   0  0  0  0  0  0  0  0  0  0  0  0
    0.1258    4.5309    3.5709 H   0  0  0  0  0  0  0  0  0  0  0  0
    1.4903    3.4701    3.9717 H   0  0  0  0  0  0  0  0  0  0  0  0
   -0.0615    3.3070    4.8257 H   0  0  0  0  0  0  0  0  0  0  0  0
  1  2  1  0
  2  3  2  0
  3  4  1  0
  4  5  1  0
  5  6  2  0
  6  7  1  0
  7  8  2  0
  8  9  1  0
  9 10  2  0
  4 11  2  0
 11 12  1  0
 12 13  2  0
 13 14  1  0
 14 15  2  0
 15 16  1  0
 16 17  2  0
 17 18  1  0
 18 19  2  0
 19 20  1  0
 20 21  2  0
 15 22  1  0
 22 23  2  0
 23 24  1  0
 23 25  1  0
 25 26  2  0
 26 27  1  0
 27 28  2  0
 28  2  1  0
 10  5  1  0
 27 11  1  0
 26 14  1  0
 21 16  1  0
  1 29  1  0
  1 30  1  0
  1 31  1  0
  3 32  1  0
  6 33  1  0
  7 34  1  0
  8 35  1  0
  9 36  1  0
 10 37  1  0
 12 38  1  0
 13 39  1  0
 17 40  1  0
 18 41  1  0
 19 42  1  0
 20 43  1  0
 21 44  1  0
 22 45  1  0
 24 46  1  0
 24 47  1  0
 24 48  1  0
M  END
$$$$

     RDKit          3D

 48 52  0  0  0  0  0  0  0  0999 V2000
   -5.1944   -0.4862    0.5001 C   0  0  0  0  0  0  0  0  0  0  0  0
   -3.7814   -0.3009    0.0422 C   0  0  0  0  0  0  0  0  0  0  0  0
   -3.5149   -0.1613   -1.3211 C   0  0  0  0  0  0  0  0  0  0  0  0
   -2.2268    0.0027   -1.7735 C   0  0  0  0  0  0  0  0  0  0  0  0
   -1.9588    0.0690   -3.2271 C   0  0  0  0  0  0  0  0  0  0  0  0
   -1.0467   -0.7952   -3.8372 C   0  0  0  0  0  0  0  0  0  0  0  0
   -0.8310   -0.7422   -5.2094 C   0  0  0  0  0  0  0  0  0  0  0  0
   -1.5199    0.1789   -5.9917 C   0  0  0  0  0  0  0  0  0  0  0  0
   -2.4371    1.0388   -5.3904 C   0  0  0  0  0  0  0  0  0  0  0  0
   -2.6551    0.9781   -4.0229 C   0  0  0  0  0  0  0  0  0  0  0  0
   -1.1855    0.0872   -0.7954 C   0  0  0  0  0  0  0  0  0  0  0  0
    0.1673    0.3761   -1.1177 C   0  0  0  0  0  0  0  0  0  0  0  0
    1.1328    0.3927   -0.1618 C   0  0  0  0  0  0  0  0  0  0  0  0
    0.8319    0.1081    1.1979 C   0  0  0  0  0  0  0  0  0  0  0  0
    1.8229    0.0340    2.2274 C   0  0  0  0  0  0  0  0  0  0  0  0
    3.2689    0.1182    1.9209 C   0  0  0  0  0  0  0  0  0  0  0  0
    3.8744   -0.7928    1.0495 C   0  0  0  0  0  0  0  0  0  0  0  0
    5.2332   -0.7110    0.7712 C   0  0  0  0  0  0  0  0  0  0  0  0
    6.0092    0.2848    1.3538 C   0  0  0  0  0  0  0  0  0  0  0  0
    5.4123    1.1890    2.2329 C   0  0  0  0  0  0  0  0  0  0  0  0
    4.0573    1.0958    2.5197 C   0  0  0  0  0  0  0  0  0  0  0  0
    1.3902   -0.1410    3.5210 C   0  0  0  0  0  0  0  0  0  0  0  0
    0.0293   -0.2790    3.8061 C   0  0  0  0  0  0  0  0  0  0  0  0
   -0.4258   -0.4474    5.2200 C   0  0  0  0  0  0  0  0  0  0  0  0
   -0.9050   -0.2555    2.8442 N   0  0  0  0  0  0  0  0  0  0  0  0
   -0.5172   -0.0801    1.5844 C   0  0  0  0  0  0  0  0  0  0  0  0
   -1.5530   -0.0873    0.5614 C   0  0  0  0  0  0  0  0  0  0  0  0
   -2.8092   -0.2641    0.9651 N   0  0  0  0  0  0  0  0  0  0  0  0
   -5.2145   -0.6327    1.5777 H   0  0  0  0  0  0  0  0  0  0  0  0
   -5.6500   -1.3497    0.0142 H   0  0  0  0  0  0  0  0  0  0  0  0
   -5.7952    0.3885    0.2451 H   0  0  0  0  0  0  0  0  0  0  0  0
   -4.3383   -0.1881   -2.0274 H   0  0  0  0  0  0  0  0  0  0  0  0
   -0.5076   -1.5146   -3.2257 H   0  0  0  0  0  0  0  0  0  0  0  0
   -0.1236   -1.4233   -5.6702 H   0  0  0  0  0  0  0  0  0  0  0  0
   -1.3389    0.2292   -7.0519 H   0  0  0  0  0  0  0  0  0  0  0  0
   -2.9765    1.7598   -5.9898 H   0  0  0  0  0  0  0  0  0  0  0  0
   -3.3818    1.6370   -3.5640 H   0  0  0  0  0  0  0  0  0  0  0  0
    0.4130    0.5935   -2.1447 H   0  0  0  0  0  0  0  0  0  0  0  0
    2.1457    0.6326   -0.4260 H   0  0  0  0  0  0  0  0  0  0  0  0
    3.2659   -1.5764    0.5977 H   0  0  0  0  0  0  0  0  0  0  0  0
    5.6855   -1.4293    0.0941 H   0  0  0  0  0  0  0  0  0  0  0  0
    7.0576    0.3600    1.1205 H   0  0  0  0  0  0  0  0  0  0  0  0
    6.0045    1.9713    2.6891 H   0  0  0  0  0  0  0  0  0  0  0  0
    3.5960    1.7858    3.2183 H   0  0  0  0  0  0  0  0  0  0  0  0
    2.1098   -0.1871    4.3340 H   0  0  0  0  0  0  0  0  0  0  0  0
    0.1327   -1.2448    5.7194 H   0  0  0  0  0  0  0  0  0  0  0  0
   -0.2662    0.4690    5.7853 H   0  0  0  0  0  0  0  0  0  0  0  0
   -1.4859   -0.6903    5.2347 H   0  0  0  0  0  0  0  0  0  0  0  0
  1  2  1  0
  2  3  2  0
  3  4  1  0
  4  5  1  0
  5  6  2  0
  6  7  1  0
  7  8  2  0
  8  9  1  0
  9 10  2  0
  4 11  2  0
 11 12  1  0
 12 13  2  0
 13 14  1  0
 14 15  2  0
 15 16  1  0
 16 17  2  0
 17 18  1  0
 18 19  2  0
 19 20  1  0
 20 21  2  0
 15 22  1  0
 22 23  2  0
 23 24  1  0
 23 25  1  0
 25 26  2  0
 26 27  1  0
 27 28  2  0
 28  2  1  0
 10  5  1  0
 27 11  1  0
 26 14  1  0
 21 16  1  0
  1 29  1  0
  1 30  1  0
  1 31  1  0
  3 32  1  0
  6 33  1  0
  7 34  1  0
  8 35  1  0
  9 36  1  0
 10 37  1  0
 12 38  1  0
 13 39  1  0
 17 40  1  0
 18 41  1  0
 19 42  1  0
 20 43  1  0
 21 44  1  0
 22 45  1  0
 24 46  1  0
 24 47  1  0
 24 48  1  0
M  END
$$$$

     RDKit          3D

 48 52  0  0  0  0  0  0  0  0999 V2000
   -2.4133    2.8910   -3.6563 C   0  0  0  0  0  0  0  0  0  0  0  0
   -1.5524    1.9503   -2.8718 C   0  0  0  0  0  0  0  0  0  0  0  0
   -0.5165    1.2680   -3.5124 C   0  0  0  0  0  0  0  0  0  0  0  0
    0.2986    0.4043   -2.8149 C   0  0  0  0  0  0  0  0  0  0  0  0
    1.4595   -0.2277   -3.4843 C   0  0  0  0  0  0  0  0  0  0  0  0
    1.3090   -0.8191   -4.7386 C   0  0  0  0  0  0  0  0  0  0  0  0
    2.3863   -1.3953   -5.3893 C   0  0  0  0  0  0  0  0  0  0  0  0
    3.6508   -1.3889   -4.8002 C   0  0  0  0  0  0  0  0  0  0  0  0
    3.8189   -0.7885   -3.5569 C   0  0  0  0  0  0  0  0  0  0  0  0
    2.7340   -0.2076   -2.9064 C   0  0  0  0  0  0  0  0  0  0  0  0
   -0.0035    0.1799   -1.4334 C   0  0  0  0  0  0  0  0  0  0  0  0
    0.6631   -0.7874   -0.6328 C   0  0  0  0  0  0  0  0  0  0  0  0
    0.4042   -0.9033    0.6928 C   0  0  0  0  0  0  0  0  0  0  0  0
   -0.5627   -0.0783    1.3292 C   0  0  0  0  0  0  0  0  0  0  0  0
   -0.8313   -0.1265    2.7329 C   0  0  0  0  0  0  0  0  0  0  0  0
   -0.0385   -0.9645    3.6586 C   0  0  0  0  0  0  0  0  0  0  0  0
    1.3515   -0.8421    3.7365 C   0  0  0  0  0  0  0  0  0  0  0  0
    2.0801   -1.6066    4.6387 C   0  0  0  0  0  0  0  0  0  0  0  0
    1.4353   -2.5204    5.4672 C   0  0  0  0  0  0  0  0  0  0  0  0
    0.0502   -2.6545    5.3913 C   0  0  0  0  0  0  0  0  0  0  0  0
   -0.6765   -1.8741    4.5023 C   0  0  0  0  0  0  0  0  0  0  0  0
   -1.8556    0.6570    3.2146 C   0  0  0  0  0  0  0  0  0  0  0  0
   -2.5785    1.4927    2.3618 C   0  0  0  0  0  0  0  0  0  0  0  0
   -3.6899    2.3299    2.9129 C   0  0  0  0  0  0  0  0  0  0  0  0
   -2.3171    1.5708    1.0468 N   0  0  0  0  0  0  0  0  0  0  0  0
   -1.3383    0.8171    0.5519 C   0  0  0  0  0  0  0  0  0  0  0  0
   -1.0536    0.9442   -0.8690 C   0  0  0  0  0  0  0  0  0  0  0  0
   -1.8065    1.7919   -1.5653 N   0  0  0  0  0  0  0  0  0  0  0  0
   -1.8166    3.7024   -4.0807 H   0  0  0  0  0  0  0  0  0  0  0  0
   -3.1741    3.3152   -3.0099 H   0  0  0  0  0  0  0  0  0  0  0  0
   -2.8954    2.3707   -4.4871 H   0  0  0  0  0  0  0  0  0  0  0  0
   -0.3511    1.4313   -4.5719 H   0  0  0  0  0  0  0  0  0  0  0  0
    0.3285   -0.8243   -5.1951 H   0  0  0  0  0  0  0  0  0  0  0  0
    2.2439   -1.8537   -6.3580 H   0  0  0  0  0  0  0  0  0  0  0  0
    4.4890   -1.8494   -5.2968 H   0  0  0  0  0  0  0  0  0  0  0  0
    4.8003   -0.7695   -3.0880 H   0  0  0  0  0  0  0  0  0  0  0  0
    2.8799    0.2799   -1.9415 H   0  0  0  0  0  0  0  0  0  0  0  0
    1.3753   -1.4444   -1.1009 H   0  0  0  0  0  0  0  0  0  0  0  0
    0.9324   -1.6358    1.2821 H   0  0  0  0  0  0  0  0  0  0  0  0
    1.8597   -0.1303    3.0856 H   0  0  0  0  0  0  0  0  0  0  0  0
    3.1564   -1.4876    4.6934 H   0  0  0  0  0  0  0  0  0  0  0  0
    2.0066   -3.1193    6.1555 H   0  0  0  0  0  0  0  0  0  0  0  0
   -0.4598   -3.3721    6.0175 H   0  0  0  0  0  0  0  0  0  0  0  0
   -1.7550   -1.9680    4.4590 H   0  0  0  0  0  0  0  0  0  0  0  0
   -2.1037    0.6269    4.2728 H   0  0  0  0  0  0  0  0  0  0  0  0
   -3.9962    3.0613    2.1687 H   0  0  0  0  0  0  0  0  0  0  0  0
   -4.5503    1.7023    3.1688 H   0  0  0  0  0  0  0  0  0  0  0  0
   -3.3769    2.8518    3.8206 H   0  0  0  0  0  0  0  0  0  0  0  0
  1  2  1  0
  2  3  2  0
  3  4  1  0
  4  5  1  0
  5  6  2  0
  6  7  1  0
  7  8  2  0
  8  9  1  0
  9 10  2  0
  4 11  2  0
 11 12  1  0
 12 13  2  0
 13 14  1  0
 14 15  2  0
 15 16  1  0
 16 17  2  0
 17 18  1  0
 18 19  2  0
 19 20  1  0
 20 21  2  0
 15 22  1  0
 22 23  2  0
 23 24  1  0
 23 25  1  0
 25 26  2  0
 26 27  1  0
 27 28  2  0
 28  2  1  0
 10  5  1  0
 27 11  1  0
 26 14  1  0
 21 16  1  0
  1 29  1  0
  1 30  1  0
  1 31  1  0
  3 32  1  0
  6 33  1  0
  7 34  1  0
  8 35  1  0
  9 36  1  0
 10 37  1  0
 12 38  1  0
 13 39  1  0
 17 40  1  0
 18 41  1  0
 19 42  1  0
 20 43  1  0
 21 44  1  0
 22 45  1  0
 24 46  1  0
 24 47  1  0
 24 48  1  0
M  END
$$$$

     RDKit          3D

 48 52  0  0  0  0  0  0  0  0999 V2000
    0.4539    5.1188    1.1021 C   0  0  0  0  0  0  0  0  0  0  0  0
    0.1833    3.7712    0.5121 C   0  0  0  0  0  0  0  0  0  0  0  0
   -0.4518    3.6815   -0.7279 C   0  0  0  0  0  0  0  0  0  0  0  0
   -0.7153    2.4542   -1.2922 C   0  0  0  0  0  0  0  0  0  0  0  0
   -1.4997    2.3674   -2.5444 C   0  0  0  0  0  0  0  0  0  0  0  0
   -2.6202    1.5371   -2.6426 C   0  0  0  0  0  0  0  0  0  0  0  0
   -3.3694    1.4950   -3.8123 C   0  0  0  0  0  0  0  0  0  0  0  0
   -3.0068    2.2726   -4.9086 C   0  0  0  0  0  0  0  0  0  0  0  0
   -1.8906    3.1036   -4.8183 C   0  0  0  0  0  0  0  0  0  0  0  0
   -1.1523    3.1531   -3.6439 C   0  0  0  0  0  0  0  0  0  0  0  0
   -0.2399    1.2895   -0.6107 C   0  0  0  0  0  0  0  0  0  0  0  0
   -0.2812   -0.0188   -1.1677 C   0  0  0  0  0  0  0  0  0  0  0  0
    0.1350   -1.1004   -0.4605 C   0  0  0  0  0  0  0  0  0  0  0  0
    0.6130   -0.9757    0.8696 C   0  0  0  0  0  0  0  0  0  0  0  0
    1.0193   -2.0916    1.6647 C   0  0  0  0  0  0  0  0  0  0  0  0
    0.9005   -3.4850    1.1827 C   0  0  0  0  0  0  0  0  0  0  0  0
    2.0140   -4.3234    1.1993 C   0  0  0  0  0  0  0  0  0  0  0  0
    1.9148   -5.6421    0.7857 C   0  0  0  0  0  0  0  0  0  0  0  0
    0.6932   -6.1562    0.3543 C   0  0  0  0  0  0  0  0  0  0  0  0
   -0.4286   -5.3316    0.3387 C   0  0  0  0  0  0  0  0  0  0  0  0
   -0.3232   -4.0047    0.7456 C   0  0  0  0  0  0  0  0  0  0  0  0
    1.5229   -1.8316    2.9176 C   0  0  0  0  0  0  0  0  0  0  0  0
    1.5843   -0.5248    3.4076 C   0  0  0  0  0  0  0  0  0  0  0  0
    2.1012   -0.2791    4.7885 C   0  0  0  0  0  0  0  0  0  0  0  0
    1.1904    0.5289    2.6760 N   0  0  0  0  0  0  0  0  0  0  0  0
    0.7373    0.3154    1.4455 C   0  0  0  0  0  0  0  0  0  0  0  0
    0.3438    1.4820    0.6663 C   0  0  0  0  0  0  0  0  0  0  0  0
    0.5670    2.6819    1.1953 N   0  0  0  0  0  0  0  0  0  0  0  0
   -0.4798    5.6311    1.3444 H   0  0  0  0  0  0  0  0  0  0  0  0
    1.0376    5.0056    2.0117 H   0  0  0  0  0  0  0  0  0  0  0  0
    1.0033    5.7477    0.3914 H   0  0  0  0  0  0  0  0  0  0  0  0
   -0.7432    4.5914   -1.2422 H   0  0  0  0  0  0  0  0  0  0  0  0
   -2.9058    0.9232   -1.7873 H   0  0  0  0  0  0  0  0  0  0  0  0
   -4.2456    0.8534   -3.8669 H   0  0  0  0  0  0  0  0  0  0  0  0
   -3.5813    2.2273   -5.8172 H   0  0  0  0  0  0  0  0  0  0  0  0
   -1.5997    3.7113   -5.6641 H   0  0  0  0  0  0  0  0  0  0  0  0
   -0.2961    3.8132   -3.5703 H   0  0  0  0  0  0  0  0  0  0  0  0
   -0.6489   -0.1407   -2.1718 H   0  0  0  0  0  0  0  0  0  0  0  0
    0.1195   -2.0795   -0.9090 H   0  0  0  0  0  0  0  0  0  0  0  0
    2.9607   -3.9249    1.5371 H   0  0  0  0  0  0  0  0  0  0  0  0
    2.7944   -6.2717    0.7914 H   0  0  0  0  0  0  0  0  0  0  0  0
    0.6168   -7.1778    0.0253 H   0  0  0  0  0  0  0  0  0  0  0  0
   -1.3866   -5.7203    0.0071 H   0  0  0  0  0  0  0  0  0  0  0  0
   -1.2036   -3.3587    0.7347 H   0  0  0  0  0  0  0  0  0  0  0  0
    1.8683   -2.6510    3.5405 H   0  0  0  0  0  0  0  0  0  0  0  0
    1.4883   -0.8005    5.5299 H   0  0  0  0  0  0  0  0  0  0  0  0
    2.0837    0.7843    5.0041 H   0  0  0  0  0  0  0  0  0  0  0  0
    3.1231   -0.6507    4.8887 H   0  0  0  0  0  0  0  0  0  0  0  0
  1  2  1  0
  2  3  2  0
  3  4  1  0
  4  5  1  0
  5  6  2  0
  6  7  1  0
  7  8  2  0
  8  9  1  0
  9 10  2  0
  4 11  2  0
 11 12  1  0
 12 13  2  0
 13 14  1  0
 14 15  2  0
 15 16  1  0
 16 17  2  0
 17 18  1  0
 18 19  2  0
 19 20  1  0
 20 21  2  0
 15 22  1  0
 22 23  2  0
 23 24  1  0
 23 25  1  0
 25 26  2  0
 26 27  1  0
 27 28  2  0
 28  2  1  0
 10  5  1  0
 27 11  1  0
 26 14  1  0
 21 16  1  0
  1 29  1  0
  1 30  1  0
  1 31  1  0
  3 32  1  0
  6 33  1  0
  7 34  1  0
  8 35  1  0
  9 36  1  0
 10 37  1  0
 12 38  1  0
 13 39  1  0
 17 40  1  0
 18 41  1  0
 19 42  1  0
 20 43  1  0
 21 44  1  0
 22 45  1  0
 24 46  1  0
 24 47  1  0
 24 48  1  0
M  END
$$$$

     RDKit          3D

 48 52  0  0  0  0  0  0  0  0999 V2000
    1.3262   -3.0587    4.0599 C   0  0  0  0  0  0  0  0  0  0  0  0
    0.6663   -2.1468    3.0727 C   0  0  0  0  0  0  0  0  0  0  0  0
   -0.5265   -1.5060    3.4203 C   0  0  0  0  0  0  0  0  0  0  0  0
   -1.1350   -0.6328    2.5507 C   0  0  0  0  0  0  0  0  0  0  0  0
   -2.3464    0.1133    2.9597 C   0  0  0  0  0  0  0  0  0  0  0  0
   -3.5303   -0.5618    3.2486 C   0  0  0  0  0  0  0  0  0  0  0  0
   -4.6570    0.1305    3.6711 C   0  0  0  0  0  0  0  0  0  0  0  0
   -4.6179    1.5178    3.8135 C   0  0  0  0  0  0  0  0  0  0  0  0
   -3.4390    2.2005    3.5341 C   0  0  0  0  0  0  0  0  0  0  0  0
   -2.3115    1.5036    3.1045 C   0  0  0  0  0  0  0  0  0  0  0  0
   -0.5394   -0.4512    1.2648 C   0  0  0  0  0  0  0  0  0  0  0  0
   -1.1168    0.3612    0.2537 C   0  0  0  0  0  0  0  0  0  0  0  0
   -0.5038    0.5334   -0.9451 C   0  0  0  0  0  0  0  0  0  0  0  0
    0.7471   -0.0824   -1.2278 C   0  0  0  0  0  0  0  0  0  0  0  0
    1.4677    0.1282   -2.4450 C   0  0  0  0  0  0  0  0  0  0  0  0
    1.0558    1.1393   -3.4446 C   0  0  0  0  0  0  0  0  0  0  0  0
    0.7967    2.4593   -3.0702 C   0  0  0  0  0  0  0  0  0  0  0  0
    0.4496    3.4087   -4.0219 C   0  0  0  0  0  0  0  0  0  0  0  0
    0.3437    3.0528   -5.3623 C   0  0  0  0  0  0  0  0  0  0  0  0
    0.6014    1.7372   -5.7459 C   0  0  0  0  0  0  0  0  0  0  0  0
    0.9604    0.7959   -4.7923 C   0  0  0  0  0  0  0  0  0  0  0  0
    2.5978   -0.6256   -2.6593 C   0  0  0  0  0  0  0  0  0  0  0  0
    3.0458   -1.5275   -1.6929 C   0  0  0  0  0  0  0  0  0  0  0  0
    4.2551   -2.3663   -1.9663 C   0  0  0  0  0  0  0  0  0  0  0  0
    2.4150   -1.6894   -0.5204 N   0  0  0  0  0  0  0  0  0  0  0  0
    1.3130   -0.9812   -0.2901 C   0  0  0  0  0  0  0  0  0  0  0  0
    0.6639   -1.1534    1.0029 C   0  0  0  0  0  0  0  0  0  0  0  0
    1.2482   -1.9676    1.8757 N   0  0  0  0  0  0  0  0  0  0  0  0
    2.2138   -3.5010    3.6142 H   0  0  0  0  0  0  0  0  0  0  0  0
    1.6145   -2.5092    4.9596 H   0  0  0  0  0  0  0  0  0  0  0  0
    0.6396   -3.8501    4.3659 H   0  0  0  0  0  0  0  0  0  0  0  0
   -0.9732   -1.7033    4.3900 H   0  0  0  0  0  0  0  0  0  0  0  0
   -3.5619   -1.6406    3.1362 H   0  0  0  0  0  0  0  0  0  0  0  0
   -5.5711   -0.4088    3.8775 H   0  0  0  0  0  0  0  0  0  0  0  0
   -5.4946    2.0557    4.1309 H   0  0  0  0  0  0  0  0  0  0  0  0
   -3.3911    3.2798    3.6485 H   0  0  0  0  0  0  0  0  0  0  0  0
   -1.3922    2.0461    2.8865 H   0  0  0  0  0  0  0  0  0  0  0  0
   -2.0592    0.8413    0.4631 H   0  0  0  0  0  0  0  0  0  0  0  0
   -0.9634    1.1295   -1.7130 H   0  0  0  0  0  0  0  0  0  0  0  0
    0.8733    2.7393   -2.0186 H   0  0  0  0  0  0  0  0  0  0  0  0
    0.2599    4.4341   -3.7154 H   0  0  0  0  0  0  0  0  0  0  0  0
    0.0560    3.7896   -6.0944 H   0  0  0  0  0  0  0  0  0  0  0  0
    0.5157    1.4519   -6.7850 H   0  0  0  0  0  0  0  0  0  0  0  0
    1.1769   -0.2215   -5.0949 H   0  0  0  0  0  0  0  0  0  0  0  0
    3.1519   -0.5172   -3.5857 H   0  0  0  0  0  0  0  0  0  0  0  0
    5.0239   -1.7901   -2.4877 H   0  0  0  0  0  0  0  0  0  0  0  0
    4.6602   -2.7404   -1.0294 H   0  0  0  0  0  0  0  0  0  0  0  0
    3.9908   -3.2160   -2.5960 H   0  0  0  0  0  0  0  0  0  0  0  0
  1  2  1  0
  2  3  2  0
  3  4  1  0
  4  5  1  0
  5  6  2  0
  6  7  1  0
  7  8  2  0
  8  9  1  0
  9 10  2  0
  4 11  2  0
 11 12  1  0
 12 13  2  0
 13 14  1  0
 14 15  2  0
 15 16  1  0
 16 17  2  0
 17 18  1  0
 18 19  2  0
 19 20  1  0
 20 21  2  0
 15 22  1  0
 22 23  2  0
 23 24  1  0
 23 25  1  0
 25 26  2  0
 26 27  1  0
 27 28  2  0
 28  2  1  0
 10  5  1  0
 27 11  1  0
 26 14  1  0
 21 16  1  0
  1 29  1  0
  1 30  1  0
  1 31  1  0
  3 32  1  0
  6 33  1  0
  7 34  1  0
  8 35  1  0
  9 36  1  0
 10 37  1  0
 12 38  1  0
 13 39  1  0
 17 40  1  0
 18 41  1  0
 19 42  1  0
 20 43  1  0
 21 44  1  0
 22 45  1  0
 24 46  1  0
 24 47  1  0
 24 48  1  0
M  END
$$$$

     RDKit          3D

 48 52  0  0  0  0  0  0  0  0999 V2000
    1.1835   -5.0144   -1.1180 C   0  0  0  0  0  0  0  0  0  0  0  0
    0.7912   -3.5682   -1.1359 C   0  0  0  0  0  0  0  0  0  0  0  0
    0.2922   -2.9975   -2.3107 C   0  0  0  0  0  0  0  0  0  0  0  0
   -0.0868   -1.6779   -2.3434 C   0  0  0  0  0  0  0  0  0  0  0  0
   -0.6240   -1.0620   -3.5782 C   0  0  0  0  0  0  0  0  0  0  0  0
    0.2366   -0.5398   -4.5416 C   0  0  0  0  0  0  0  0  0  0  0  0
   -0.2712    0.0407   -5.6988 C   0  0  0  0  0  0  0  0  0  0  0  0
   -1.6453    0.1088   -5.9073 C   0  0  0  0  0  0  0  0  0  0  0  0
   -2.5108   -0.4142   -4.9527 C   0  0  0  0  0  0  0  0  0  0  0  0
   -2.0032   -0.9943   -3.7900 C   0  0  0  0  0  0  0  0  0  0  0  0
    0.0407   -0.9180   -1.1406 C   0  0  0  0  0  0  0  0  0  0  0  0
   -0.3261    0.4498   -1.0507 C   0  0  0  0  0  0  0  0  0  0  0  0
   -0.2138    1.1323    0.1157 C   0  0  0  0  0  0  0  0  0  0  0  0
    0.2768    0.5061    1.2915 C   0  0  0  0  0  0  0  0  0  0  0  0
    0.3931    1.1766    2.5503 C   0  0  0  0  0  0  0  0  0  0  0  0
   -0.1311    2.5426    2.7638 C   0  0  0  0  0  0  0  0  0  0  0  0
   -1.4773    2.8431    2.5539 C   0  0  0  0  0  0  0  0  0  0  0  0
   -1.9656    4.1188    2.8067 C   0  0  0  0  0  0  0  0  0  0  0  0
   -1.1116    5.1232    3.2561 C   0  0  0  0  0  0  0  0  0  0  0  0
    0.2345    4.8334    3.4626 C   0  0  0  0  0  0  0  0  0  0  0  0
    0.7139    3.5521    3.2265 C   0  0  0  0  0  0  0  0  0  0  0  0
    0.9993    0.5019    3.5822 C   0  0  0  0  0  0  0  0  0  0  0  0
    1.4311   -0.8159    3.4162 C   0  0  0  0  0  0  0  0  0  0  0  0
    2.0971   -1.5202    4.5575 C   0  0  0  0  0  0  0  0  0  0  0  0
    1.2726   -1.4732    2.2603 N   0  0  0  0  0  0  0  0  0  0  0  0
    0.7167   -0.8388    1.2350 C   0  0  0  0  0  0  0  0  0  0  0  0
    0.5619   -1.5822   -0.0042 C   0  0  0  0  0  0  0  0  0  0  0  0
    0.9228   -2.8627    0.0009 N   0  0  0  0  0  0  0  0  0  0  0  0
    1.7802   -5.2161   -0.2357 H   0  0  0  0  0  0  0  0  0  0  0  0
    1.7544   -5.2720   -2.0124 H   0  0  0  0  0  0  0  0  0  0  0  0
    0.2970   -5.6487   -1.0945 H   0  0  0  0  0  0  0  0  0  0  0  0
    0.2037   -3.6061   -3.2060 H   0  0  0  0  0  0  0  0  0  0  0  0
    1.3082   -0.5976   -4.3856 H   0  0  0  0  0  0  0  0  0  0  0  0
    0.4106    0.4450   -6.4368 H   0  0  0  0  0  0  0  0  0  0  0  0
   -2.0345    0.5732   -6.7986 H   0  0  0  0  0  0  0  0  0  0  0  0
   -3.5830   -0.3662   -5.1079 H   0  0  0  0  0  0  0  0  0  0  0  0
   -2.6785   -1.4061   -3.0499 H   0  0  0  0  0  0  0  0  0  0  0  0
   -0.7102    0.9333   -1.9337 H   0  0  0  0  0  0  0  0  0  0  0  0
   -0.4950    2.1672    0.1667 H   0  0  0  0  0  0  0  0  0  0  0  0
   -2.1445    2.0628    2.1920 H   0  0  0  0  0  0  0  0  0  0  0  0
   -3.0187    4.3314    2.6556 H   0  0  0  0  0  0  0  0  0  0  0  0
   -1.4900    6.1125    3.4355 H   0  0  0  0  0  0  0  0  0  0  0  0
    0.9095    5.6062    3.8019 H   0  0  0  0  0  0  0  0  0  0  0  0
    1.7559    3.3230    3.4108 H   0  0  0  0  0  0  0  0  0  0  0  0
    1.1381    0.9911    4.5426 H   0  0  0  0  0  0  0  0  0  0  0  0
    1.4176   -1.6189    5.4045 H   0  0  0  0  0  0  0  0  0  0  0  0
    2.4174   -2.5091    4.2430 H   0  0  0  0  0  0  0  0  0  0  0  0
    2.9646   -0.9550    4.9014 H   0  0  0  0  0  0  0  0  0  0  0  0
  1  2  1  0
  2  3  2  0
  3  4  1  0
  4  5  1  0
  5  6  2  0
  6  7  1  0
  7  8  2  0
  8  9  1  0
  9 10  2  0
  4 11  2  0
 11 12  1  0
 12 13  2  0
 13 14  1  0
 14 15  2  0
 15 16  1  0
 16 17  2  0
 17 18  1  0
 18 19  2  0
 19 20  1  0
 20 21  2  0
 15 22  1  0
 22 23  2  0
 23 24  1  0
 23 25  1  0
 25 26  2  0
 26 27  1  0
 27 28  2  0
 28  2  1  0
 10  5  1  0
 27 11  1  0
 26 14  1  0
 21 16  1  0
  1 29  1  0
  1 30  1  0
  1 31  1  0
  3 32  1  0
  6 33  1  0
  7 34  1  0
  8 35  1  0
  9 36  1  0
 10 37  1  0
 12 38  1  0
 13 39  1  0
 17 40  1  0
 18 41  1  0
 19 42  1  0
 20 43  1  0
 21 44  1  0
 22 45  1  0
 24 46  1  0
 24 47  1  0
 24 48  1  0
M  END
$$$$

     RDKit          3D

 48 52  0  0  0  0  0  0  0  0999 V2000
    3.7159   -3.0290   -2.0621 C   0  0  0  0  0  0  0  0  0  0  0  0
    2.5968   -2.4432   -1.2609 C   0  0  0  0  0  0  0  0  0  0  0  0
    1.8838   -3.2346   -0.3587 C   0  0  0  0  0  0  0  0  0  0  0  0
    0.8549   -2.7052    0.3891 C   0  0  0  0  0  0  0  0  0  0  0  0
    0.1597   -3.5578    1.3811 C   0  0  0  0  0  0  0  0  0  0  0  0
   -0.0120   -3.1474    2.7076 C   0  0  0  0  0  0  0  0  0  0  0  0
   -0.6345   -3.9735    3.6326 C   0  0  0  0  0  0  0  0  0  0  0  0
   -1.1071   -5.2257    3.2465 C   0  0  0  0  0  0  0  0  0  0  0  0
   -0.9385   -5.6438    1.9271 C   0  0  0  0  0  0  0  0  0  0  0  0
   -0.3012   -4.8208    1.0090 C   0  0  0  0  0  0  0  0  0  0  0  0
    0.5124   -1.3357    0.1652 C   0  0  0  0  0  0  0  0  0  0  0  0
   -0.5943   -0.6910    0.7828 C   0  0  0  0  0  0  0  0  0  0  0  0
   -0.9049    0.6010    0.5039 C   0  0  0  0  0  0  0  0  0  0  0  0
   -0.1273    1.3732   -0.3997 C   0  0  0  0  0  0  0  0  0  0  0  0
   -0.4037    2.7429   -0.7068 C   0  0  0  0  0  0  0  0  0  0  0  0
   -1.6228    3.4335   -0.2323 C   0  0  0  0  0  0  0  0  0  0  0  0
   -2.8975    2.9219   -0.4953 C   0  0  0  0  0  0  0  0  0  0  0  0
   -4.0342    3.6137   -0.0986 C   0  0  0  0  0  0  0  0  0  0  0  0
   -3.9192    4.8225    0.5852 C   0  0  0  0  0  0  0  0  0  0  0  0
   -2.6507    5.3316    0.8603 C   0  0  0  0  0  0  0  0  0  0  0  0
   -1.5153    4.6444    0.4487 C   0  0  0  0  0  0  0  0  0  0  0  0
    0.5081    3.4186   -1.4841 C   0  0  0  0  0  0  0  0  0  0  0  0
    1.6237    2.7658   -2.0122 C   0  0  0  0  0  0  0  0  0  0  0  0
    2.5852    3.5344   -2.8645 C   0  0  0  0  0  0  0  0  0  0  0  0
    1.8629    1.4664   -1.7799 N   0  0  0  0  0  0  0  0  0  0  0  0
    1.0180    0.7936   -1.0013 C   0  0  0  0  0  0  0  0  0  0  0  0
    1.3055   -0.6139   -0.7641 C   0  0  0  0  0  0  0  0  0  0  0  0
    2.3112   -1.1464   -1.4491 N   0  0  0  0  0  0  0  0  0  0  0  0
    3.9509   -4.0483   -1.7286 H   0  0  0  0  0  0  0  0  0  0  0  0
    4.6033   -2.4127   -1.9640 H   0  0  0  0  0  0  0  0  0  0  0  0
    3.4499   -3.0545   -3.1109 H   0  0  0  0  0  0  0  0  0  0  0  0
    2.1472   -4.2787   -0.2402 H   0  0  0  0  0  0  0  0  0  0  0  0
    0.3629   -2.1696    3.0107 H   0  0  0  0  0  0  0  0  0  0  0  0
   -0.7479   -3.6410    4.6603 H   0  0  0  0  0  0  0  0  0  0  0  0
   -1.6052   -5.8576    3.9603 H   0  0  0  0  0  0  0  0  0  0  0  0
   -1.3087   -6.6133    1.6139 H   0  0  0  0  0  0  0  0  0  0  0  0
   -0.1586   -5.1571   -0.0105 H   0  0  0  0  0  0  0  0  0  0  0  0
   -1.1968   -1.2493    1.4742 H   0  0  0  0  0  0  0  0  0  0  0  0
   -1.7400    1.0692    0.9930 H   0  0  0  0  0  0  0  0  0  0  0  0
   -2.9887    1.9716   -1.0225 H   0  0  0  0  0  0  0  0  0  0  0  0
   -5.0134    3.2097   -0.3272 H   0  0  0  0  0  0  0  0  0  0  0  0
   -4.8007    5.3495    0.9009 H   0  0  0  0  0  0  0  0  0  0  0  0
   -2.5444    6.2620    1.4031 H   0  0  0  0  0  0  0  0  0  0  0  0
   -0.5302    5.0496    0.6514 H   0  0  0  0  0  0  0  0  0  0  0  0
    0.3609    4.4739   -1.6964 H   0  0  0  0  0  0  0  0  0  0  0  0
    2.0520    4.1005   -3.6382 H   0  0  0  0  0  0  0  0  0  0  0  0
    3.1452    4.2509   -2.2666 H   0  0  0  0  0  0  0  0  0  0  0  0
    3.2873    2.8500   -3.3326 H   0  0  0  0  0  0  0  0  0  0  0  0
  1  2  1  0
  2  3  2  0
  3  4  1  0
  4  5  1  0
  5  6  2  0
  6  7  1  0
  7  8  2  0
  8  9  1  0
  9 10  2  0
  4 11  2  0
 11 12  1  0
 12 13  2  0
 13 14  1  0
 14 15  2  0
 15 16  1  0
 16 17  2  0
 17 18  1  0
 18 19  2  0
 19 20  1  0
 20 21  2  0
 15 22  1  0
 22 23  2  0
 23 24  1  0
 23 25  1  0
 25 26  2  0
 26 27  1  0
 27 28  2  0
 28  2  1  0
 10  5  1  0
 27 11  1  0
 26 14  1  0
 21 16  1  0
  1 29  1  0
  1 30  1  0
  1 31  1  0
  3 32  1  0
  6 33  1  0
  7 34  1  0
  8 35  1  0
  9 36  1  0
 10 37  1  0
 12 38  1  0
 13 39  1  0
 17 40  1  0
 18 41  1  0
 19 42  1  0
 20 43  1  0
 21 44  1  0
 22 45  1  0
 24 46  1  0
 24 47  1  0
 24 48  1  0
M  END
$$$$
