
     RDKit          3D

 42 46  0  0  0  0  0  0  0  0999 V2000
   -4.6526   -3.6207    0.2711 C   0  0  0  0  0  0  0  0  0  0  0  0
   -4.6472   -3.2503   -1.0765 C   0  0  0  0  0  0  0  0  0  0  0  0
   -3.4800   -2.8189   -1.6770 C   0  0  0  0  0  0  0  0  0  0  0  0
   -2.2898   -2.7373   -0.9500 C   0  0  0  0  0  0  0  0  0  0  0  0
   -1.0388   -2.3198   -1.6218 C   0  0  0  0  0  0  0  0  0  0  0  0
   -0.6137   -2.9394   -2.7629 C   0  0  0  0  0  0  0  0  0  0  0  0
    0.6191   -2.5915   -3.3305 C   0  0  0  0  0  0  0  0  0  0  0  0
    1.4200   -1.6578   -2.8293 N   0  0  0  0  0  0  0  0  0  0  0  0
    1.0134   -0.9984   -1.7347 C   0  0  0  0  0  0  0  0  0  0  0  0
   -0.2167   -1.2585   -1.0875 C   0  0  0  0  0  0  0  0  0  0  0  0
   -0.6069   -0.4534    0.0111 C   0  0  0  0  0  0  0  0  0  0  0  0
    0.1857    0.5412    0.4818 C   0  0  0  0  0  0  0  0  0  0  0  0
    1.4330    0.8360   -0.1237 C   0  0  0  0  0  0  0  0  0  0  0  0
    2.2970    1.8894    0.3207 C   0  0  0  0  0  0  0  0  0  0  0  0
    1.8867    2.8612    1.3587 C   0  0  0  0  0  0  0  0  0  0  0  0
    0.6901    3.5833    1.2488 C   0  0  0  0  0  0  0  0  0  0  0  0
    0.3505    4.5361    2.1952 C   0  0  0  0  0  0  0  0  0  0  0  0
    1.1905    4.7781    3.2818 C   0  0  0  0  0  0  0  0  0  0  0  0
    2.3821    4.0589    3.4005 C   0  0  0  0  0  0  0  0  0  0  0  0
    2.7225    3.1130    2.4463 C   0  0  0  0  0  0  0  0  0  0  0  0
    3.5320    1.9910   -0.2671 C   0  0  0  0  0  0  0  0  0  0  0  0
    3.8821    1.1326   -1.3084 C   0  0  0  0  0  0  0  0  0  0  0  0
    3.0739    0.1791   -1.7807 N   0  0  0  0  0  0  0  0  0  0  0  0
    1.8814    0.0344   -1.2111 C   0  0  0  0  0  0  0  0  0  0  0  0
   -2.3019   -3.1024    0.4013 C   0  0  0  0  0  0  0  0  0  0  0  0
   -3.4694   -3.5464    1.0058 C   0  0  0  0  0  0  0  0  0  0  0  0
   -5.5636   -3.9631    0.7393 H   0  0  0  0  0  0  0  0  0  0  0  0
   -5.5687   -3.3018   -1.6505 H   0  0  0  0  0  0  0  0  0  0  0  0
   -3.4707   -2.5374   -2.7226 H   0  0  0  0  0  0  0  0  0  0  0  0
   -1.2233   -3.7049   -3.2351 H   0  0  0  0  0  0  0  0  0  0  0  0
    0.9488   -3.1004   -4.2195 H   0  0  0  0  0  0  0  0  0  0  0  0
   -1.5638   -0.6332    0.4620 H   0  0  0  0  0  0  0  0  0  0  0  0
   -0.1251    1.1108    1.3330 H   0  0  0  0  0  0  0  0  0  0  0  0
    0.0318    3.3958    0.4005 H   0  0  0  0  0  0  0  0  0  0  0  0
   -0.5714    5.0950    2.0913 H   0  0  0  0  0  0  0  0  0  0  0  0
    0.9185    5.5144    4.0251 H   0  0  0  0  0  0  0  0  0  0  0  0
    3.0384    4.2407    4.2454 H   0  0  0  0  0  0  0  0  0  0  0  0
    3.6501    2.5615    2.5379 H   0  0  0  0  0  0  0  0  0  0  0  0
    4.2419    2.7412    0.0719 H   0  0  0  0  0  0  0  0  0  0  0  0
    4.8510    1.2266   -1.7691 H   0  0  0  0  0  0  0  0  0  0  0  0
   -1.3780   -3.0481    0.9793 H   0  0  0  0  0  0  0  0  0  0  0  0
   -3.4589   -3.8367    2.0492 H   0  0  0  0  0  0  0  0  0  0  0  0
  1  2  2  0
  2  3  1  0
  3  4  2  0
  4  5  1  0
  5  6  2  0
  6  7  1  0
  7  8  2  0
  8  9  1  0
  9 10  2  0
 10 11  1  0
 11 12  2  0
 12 13  1  0
 13 14  2  0
 14 15  1  0
 15 16  2  0
 16 17  1  0
 17 18  2  0
 18 19  1  0
 19 20  2  0
 14 21  1  0
 21 22  2  0
 22 23  1  0
 23 24  2  0
  4 25  1  0
 25 26  2  0
 26  1  1  0
 10  5  1  0
 24 13  1  0
 24  9  1  0
 20 15  1  0
  1 27  1  0
  2 28  1  0
  3 29  1  0
  6 30  1  0
  7 31  1  0
 11 32  1  0
 12 33  1  0
 16 34  1  0
 17 35  1  0
 18 36  1  0
 19 37  1  0
 20 38  1  0
 21 39  1  0
 22 40  1  0
 25 41  1  0
 26 42  1  0
M  END
$$$$

     RDKit          3D

 42 46  0  0  0  0  0  0  0  0999 V2000
    1.2003    3.7648    4.3240 C   0  0  0  0  0  0  0  0  0  0  0  0
    1.1726    3.8757    2.9351 C   0  0  0  0  0  0  0  0  0  0  0  0
    0.2653    3.1375    2.1928 C   0  0  0  0  0  0  0  0  0  0  0  0
   -0.6346    2.2724    2.8245 C   0  0  0  0  0  0  0  0  0  0  0  0
   -1.6283    1.4911    2.0502 C   0  0  0  0  0  0  0  0  0  0  0  0
   -2.9631    1.5776    2.3366 C   0  0  0  0  0  0  0  0  0  0  0  0
   -3.8920    0.8925    1.5434 C   0  0  0  0  0  0  0  0  0  0  0  0
   -3.5606    0.1352    0.5014 N   0  0  0  0  0  0  0  0  0  0  0  0
   -2.2586   -0.0094    0.2213 C   0  0  0  0  0  0  0  0  0  0  0  0
   -1.2352    0.6192    0.9692 C   0  0  0  0  0  0  0  0  0  0  0  0
    0.1175    0.3400    0.6671 C   0  0  0  0  0  0  0  0  0  0  0  0
    0.4563   -0.4714   -0.3647 C   0  0  0  0  0  0  0  0  0  0  0  0
   -0.5274   -1.0589   -1.1933 C   0  0  0  0  0  0  0  0  0  0  0  0
   -0.2055   -1.8902   -2.3146 C   0  0  0  0  0  0  0  0  0  0  0  0
    1.1944   -2.1400   -2.7298 C   0  0  0  0  0  0  0  0  0  0  0  0
    1.6520   -3.4497   -2.8821 C   0  0  0  0  0  0  0  0  0  0  0  0
    2.9431   -3.7117   -3.3074 C   0  0  0  0  0  0  0  0  0  0  0  0
    3.8140   -2.6606   -3.5974 C   0  0  0  0  0  0  0  0  0  0  0  0
    3.3702   -1.3465   -3.4501 C   0  0  0  0  0  0  0  0  0  0  0  0
    2.0765   -1.0890   -3.0170 C   0  0  0  0  0  0  0  0  0  0  0  0
   -1.2504   -2.4511   -3.0045 C   0  0  0  0  0  0  0  0  0  0  0  0
   -2.5670   -2.1827   -2.6305 C   0  0  0  0  0  0  0  0  0  0  0  0
   -2.8949   -1.3995   -1.5964 N   0  0  0  0  0  0  0  0  0  0  0  0
   -1.9042   -0.8526   -0.8992 C   0  0  0  0  0  0  0  0  0  0  0  0
   -0.6071    2.1755    4.2145 C   0  0  0  0  0  0  0  0  0  0  0  0
    0.2971    2.9118    4.9617 C   0  0  0  0  0  0  0  0  0  0  0  0
    1.9197    4.3295    4.9003 H   0  0  0  0  0  0  0  0  0  0  0  0
    1.8629    4.5447    2.4362 H   0  0  0  0  0  0  0  0  0  0  0  0
    0.2406    3.2264    1.1073 H   0  0  0  0  0  0  0  0  0  0  0  0
   -3.3082    2.1817    3.1697 H   0  0  0  0  0  0  0  0  0  0  0  0
   -4.9409    0.9841    1.7699 H   0  0  0  0  0  0  0  0  0  0  0  0
    0.8804    0.7785    1.2868 H   0  0  0  0  0  0  0  0  0  0  0  0
    1.4881   -0.6838   -0.5647 H   0  0  0  0  0  0  0  0  0  0  0  0
    0.9739   -4.2648   -2.6572 H   0  0  0  0  0  0  0  0  0  0  0  0
    3.2820   -4.7370   -3.4073 H   0  0  0  0  0  0  0  0  0  0  0  0
    4.8260   -2.8644   -3.9294 H   0  0  0  0  0  0  0  0  0  0  0  0
    4.0399   -0.5221   -3.6777 H   0  0  0  0  0  0  0  0  0  0  0  0
    1.7367   -0.0580   -2.9067 H   0  0  0  0  0  0  0  0  0  0  0  0
   -1.0567   -3.1138   -3.8449 H   0  0  0  0  0  0  0  0  0  0  0  0
   -3.3758   -2.6210   -3.1906 H   0  0  0  0  0  0  0  0  0  0  0  0
   -1.3094    1.5181    4.7132 H   0  0  0  0  0  0  0  0  0  0  0  0
    0.3105    2.8218    6.0404 H   0  0  0  0  0  0  0  0  0  0  0  0
  1  2  2  0
  2  3  1  0
  3  4  2  0
  4  5  1  0
  5  6  2  0
  6  7  1  0
  7  8  2  0
  8  9  1  0
  9 10  2  0
 10 11  1  0
 11 12  2  0
 12 13  1  0
 13 14  2  0
 14 15  1  0
 15 16  2  0
 16 17  1  0
 17 18  2  0
 18 19  1  0
 19 20  2  0
 14 21  1  0
 21 22  2  0
 22 23  1  0
 23 24  2  0
  4 25  1  0
 25 26  2  0
 26  1  1  0
 10  5  1  0
 24 13  1  0
 24  9  1  0
 20 15  1  0
  1 27  1  0
  2 28  1  0
  3 29  1  0
  6 30  1  0
  7 31  1  0
 11 32  1  0
 12 33  1  0
 16 34  1  0
 17 35  1  0
 18 36  1  0
 19 37  1  0
 20 38  1  0
 21 39  1  0
 22 40  1  0
 25 41  1  0
 26 42  1  0
M  END
$$$$

     RDKit          3D

 42 46  0  0  0  0  0  0  0  0999 V2000
   -4.6181   -2.2072    2.8970 C   0  0  0  0  0  0  0  0  0  0  0  0
   -5.2539   -1.6673    1.7752 C   0  0  0  0  0  0  0  0  0  0  0  0
   -4.5503   -1.4635    0.6021 C   0  0  0  0  0  0  0  0  0  0  0  0
   -3.1915   -1.7778    0.5191 C   0  0  0  0  0  0  0  0  0  0  0  0
   -2.4541   -1.5844   -0.7504 C   0  0  0  0  0  0  0  0  0  0  0  0
   -2.9271   -2.1077   -1.9179 C   0  0  0  0  0  0  0  0  0  0  0  0
   -2.1749   -1.9887   -3.0933 C   0  0  0  0  0  0  0  0  0  0  0  0
   -0.9987   -1.3695   -3.1558 N   0  0  0  0  0  0  0  0  0  0  0  0
   -0.5136   -0.8279   -2.0304 C   0  0  0  0  0  0  0  0  0  0  0  0
   -1.1983   -0.8706   -0.7953 C   0  0  0  0  0  0  0  0  0  0  0  0
   -0.6497   -0.1928    0.3196 C   0  0  0  0  0  0  0  0  0  0  0  0
    0.5384    0.4466    0.2487 C   0  0  0  0  0  0  0  0  0  0  0  0
    1.2859    0.4850   -0.9533 C   0  0  0  0  0  0  0  0  0  0  0  0
    2.5607    1.1300   -1.0669 C   0  0  0  0  0  0  0  0  0  0  0  0
    3.1430    1.9149    0.0443 C   0  0  0  0  0  0  0  0  0  0  0  0
    4.4464    1.6564    0.4724 C   0  0  0  0  0  0  0  0  0  0  0  0
    5.0244    2.4095    1.4779 C   0  0  0  0  0  0  0  0  0  0  0  0
    4.3120    3.4515    2.0758 C   0  0  0  0  0  0  0  0  0  0  0  0
    3.0113    3.7233    1.6532 C   0  0  0  0  0  0  0  0  0  0  0  0
    2.4285    2.9531    0.6572 C   0  0  0  0  0  0  0  0  0  0  0  0
    3.2308    1.0090   -2.2598 C   0  0  0  0  0  0  0  0  0  0  0  0
    2.6342    0.3452   -3.3296 C   0  0  0  0  0  0  0  0  0  0  0  0
    1.4284   -0.2326   -3.2621 N   0  0  0  0  0  0  0  0  0  0  0  0
    0.7750   -0.1742   -2.1050 C   0  0  0  0  0  0  0  0  0  0  0  0
   -2.5614   -2.3218    1.6443 C   0  0  0  0  0  0  0  0  0  0  0  0
   -3.2651   -2.5354    2.8215 C   0  0  0  0  0  0  0  0  0  0  0  0
   -5.1665   -2.3679    3.8146 H   0  0  0  0  0  0  0  0  0  0  0  0
   -6.3061   -1.4088    1.8284 H   0  0  0  0  0  0  0  0  0  0  0  0
   -5.0472   -1.0614   -0.2722 H   0  0  0  0  0  0  0  0  0  0  0  0
   -3.8809   -2.6252   -1.9457 H   0  0  0  0  0  0  0  0  0  0  0  0
   -2.5565   -2.4196   -4.0018 H   0  0  0  0  0  0  0  0  0  0  0  0
   -1.2161   -0.1781    1.2324 H   0  0  0  0  0  0  0  0  0  0  0  0
    0.9475    0.9251    1.1189 H   0  0  0  0  0  0  0  0  0  0  0  0
    4.9953    0.8500    0.0023 H   0  0  0  0  0  0  0  0  0  0  0  0
    6.0346    2.1888    1.8118 H   0  0  0  0  0  0  0  0  0  0  0  0
    4.7648    4.0421    2.8623 H   0  0  0  0  0  0  0  0  0  0  0  0
    2.4537    4.5350    2.1050 H   0  0  0  0  0  0  0  0  0  0  0  0
    1.4045    3.1580    0.3386 H   0  0  0  0  0  0  0  0  0  0  0  0
    4.2226    1.4362   -2.3777 H   0  0  0  0  0  0  0  0  0  0  0  0
    3.1566    0.2823   -4.2712 H   0  0  0  0  0  0  0  0  0  0  0  0
   -1.5077   -2.5961    1.5865 H   0  0  0  0  0  0  0  0  0  0  0  0
   -2.7609   -2.9635    3.6796 H   0  0  0  0  0  0  0  0  0  0  0  0
  1  2  2  0
  2  3  1  0
  3  4  2  0
  4  5  1  0
  5  6  2  0
  6  7  1  0
  7  8  2  0
  8  9  1  0
  9 10  2  0
 10 11  1  0
 11 12  2  0
 12 13  1  0
 13 14  2  0
 14 15  1  0
 15 16  2  0
 16 17  1  0
 17 18  2  0
 18 19  1  0
 19 20  2  0
 14 21  1  0
 21 22  2  0
 22 23  1  0
 23 24  2  0
  4 25  1  0
 25 26  2  0
 26  1  1  0
 10  5  1  0
 24 13  1  0
 24  9  1  0
 20 15  1  0
  1 27  1  0
  2 28  1  0
  3 29  1  0
  6 30  1  0
  7 31  1  0
 11 32  1  0
 12 33  1  0
 16 34  1  0
 17 35  1  0
 18 36  1  0
 19 37  1  0
 20 38  1  0
 21 39  1  0
 22 40  1  0
 25 41  1  0
 26 42  1  0
M  END
$$$$

     RDKit          3D

 42 46  0  0  0  0  0  0  0  0999 V2000
    2.4489   -3.8944   -3.6768 C   0  0  0  0  0  0  0  0  0  0  0  0
    1.2753   -3.1417   -3.6192 C   0  0  0  0  0  0  0  0  0  0  0  0
    0.7231   -2.8046   -2.3939 C   0  0  0  0  0  0  0  0  0  0  0  0
    1.3291   -3.2125   -1.1972 C   0  0  0  0  0  0  0  0  0  0  0  0
    0.7087   -2.9163    0.1129 C   0  0  0  0  0  0  0  0  0  0  0  0
    0.4365   -3.9261    0.9939 C   0  0  0  0  0  0  0  0  0  0  0  0
   -0.2355   -3.6471    2.1898 C   0  0  0  0  0  0  0  0  0  0  0  0
   -0.6278   -2.4293    2.5469 N   0  0  0  0  0  0  0  0  0  0  0  0
   -0.3565   -1.4116    1.7180 C   0  0  0  0  0  0  0  0  0  0  0  0
    0.3326   -1.5757    0.4922 C   0  0  0  0  0  0  0  0  0  0  0  0
    0.6469   -0.4322   -0.2823 C   0  0  0  0  0  0  0  0  0  0  0  0
    0.2081    0.8033    0.0697 C   0  0  0  0  0  0  0  0  0  0  0  0
   -0.5747    1.0026    1.2335 C   0  0  0  0  0  0  0  0  0  0  0  0
   -1.1300    2.2719    1.6013 C   0  0  0  0  0  0  0  0  0  0  0  0
   -1.1243    3.4315    0.6822 C   0  0  0  0  0  0  0  0  0  0  0  0
   -1.6141    3.3188   -0.6238 C   0  0  0  0  0  0  0  0  0  0  0  0
   -1.6656    4.4305   -1.4513 C   0  0  0  0  0  0  0  0  0  0  0  0
   -1.2129    5.6690   -0.9997 C   0  0  0  0  0  0  0  0  0  0  0  0
   -0.7140    5.7853    0.3003 C   0  0  0  0  0  0  0  0  0  0  0  0
   -0.6773    4.6773    1.1271 C   0  0  0  0  0  0  0  0  0  0  0  0
   -1.7172    2.3771    2.8388 C   0  0  0  0  0  0  0  0  0  0  0  0
   -1.8427    1.2484    3.6455 C   0  0  0  0  0  0  0  0  0  0  0  0
   -1.4106    0.0328    3.2895 N   0  0  0  0  0  0  0  0  0  0  0  0
   -0.8003   -0.0919    2.1128 C   0  0  0  0  0  0  0  0  0  0  0  0
    2.5011   -3.9683   -1.2656 C   0  0  0  0  0  0  0  0  0  0  0  0
    3.0584   -4.3006   -2.4872 C   0  0  0  0  0  0  0  0  0  0  0  0
    2.8815   -4.1598   -4.6308 H   0  0  0  0  0  0  0  0  0  0  0  0
    0.7918   -2.8305   -4.5369 H   0  0  0  0  0  0  0  0  0  0  0  0
   -0.2002   -2.2332   -2.3517 H   0  0  0  0  0  0  0  0  0  0  0  0
    0.7354   -4.9435    0.7703 H   0  0  0  0  0  0  0  0  0  0  0  0
   -0.4571   -4.4549    2.8651 H   0  0  0  0  0  0  0  0  0  0  0  0
    1.2344   -0.5582   -1.1682 H   0  0  0  0  0  0  0  0  0  0  0  0
    0.4558    1.6553   -0.5344 H   0  0  0  0  0  0  0  0  0  0  0  0
   -1.9646    2.3528   -0.9773 H   0  0  0  0  0  0  0  0  0  0  0  0
   -2.0686    4.3408   -2.4535 H   0  0  0  0  0  0  0  0  0  0  0  0
   -1.2481    6.5326   -1.6501 H   0  0  0  0  0  0  0  0  0  0  0  0
   -0.3578    6.7430    0.6564 H   0  0  0  0  0  0  0  0  0  0  0  0
   -0.2962    4.7712    2.1375 H   0  0  0  0  0  0  0  0  0  0  0  0
   -2.1014    3.3321    3.1832 H   0  0  0  0  0  0  0  0  0  0  0  0
   -2.3173    1.3381    4.6070 H   0  0  0  0  0  0  0  0  0  0  0  0
    2.9719   -4.3019   -0.3494 H   0  0  0  0  0  0  0  0  0  0  0  0
    3.9755   -4.8795   -2.5247 H   0  0  0  0  0  0  0  0  0  0  0  0
  1  2  2  0
  2  3  1  0
  3  4  2  0
  4  5  1  0
  5  6  2  0
  6  7  1  0
  7  8  2  0
  8  9  1  0
  9 10  2  0
 10 11  1  0
 11 12  2  0
 12 13  1  0
 13 14  2  0
 14 15  1  0
 15 16  2  0
 16 17  1  0
 17 18  2  0
 18 19  1  0
 19 20  2  0
 14 21  1  0
 21 22  2  0
 22 23  1  0
 23 24  2  0
  4 25  1  0
 25 26  2  0
 26  1  1  0
 10  5  1  0
 24 13  1  0
 24  9  1  0
 20 15  1  0
  1 27  1  0
  2 28  1  0
  3 29  1  0
  6 30  1  0
  7 31  1  0
 11 32  1  0
 12 33  1  0
 16 34  1  0
 17 35  1  0
 18 36  1  0
 19 37  1  0
 20 38  1  0
 21 39  1  0
 22 40  1  0
 25 41  1  0
 26 42  1  0
M  END
$$$$

     RDKit          3D

 42 46  0  0  0  0  0  0  0  0999 V2000
   -5.6251   -1.0404    1.4813 C   0  0  0  0  0  0  0  0  0  0  0  0
   -4.5839   -0.2898    2.0306 C   0  0  0  0  0  0  0  0  0  0  0  0
   -3.6239    0.2756    1.2113 C   0  0  0  0  0  0  0  0  0  0  0  0
   -3.6892    0.1203   -0.1790 C   0  0  0  0  0  0  0  0  0  0  0  0
   -2.7066    0.7722   -1.0735 C   0  0  0  0  0  0  0  0  0  0  0  0
   -3.1243    1.5358   -2.1299 C   0  0  0  0  0  0  0  0  0  0  0  0
   -2.1860    2.2370   -2.8948 C   0  0  0  0  0  0  0  0  0  0  0  0
   -0.8763    2.1991   -2.6713 N   0  0  0  0  0  0  0  0  0  0  0  0
   -0.4266    1.4239   -1.6749 C   0  0  0  0  0  0  0  0  0  0  0  0
   -1.2850    0.6536   -0.8531 C   0  0  0  0  0  0  0  0  0  0  0  0
   -0.7207   -0.2214    0.1058 C   0  0  0  0  0  0  0  0  0  0  0  0
    0.6209   -0.2765    0.3076 C   0  0  0  0  0  0  0  0  0  0  0  0
    1.5207    0.4971   -0.4649 C   0  0  0  0  0  0  0  0  0  0  0  0
    2.9443    0.4574   -0.2909 C   0  0  0  0  0  0  0  0  0  0  0  0
    3.6023   -0.5117    0.6134 C   0  0  0  0  0  0  0  0  0  0  0  0
    3.3871   -1.8890    0.4810 C   0  0  0  0  0  0  0  0  0  0  0  0
    4.0641   -2.7892    1.2847 C   0  0  0  0  0  0  0  0  0  0  0  0
    4.9532   -2.3339    2.2574 C   0  0  0  0  0  0  0  0  0  0  0  0
    5.1628   -0.9591    2.4060 C   0  0  0  0  0  0  0  0  0  0  0  0
    4.4935   -0.0629    1.5877 C   0  0  0  0  0  0  0  0  0  0  0  0
    3.6990    1.3466   -1.0138 C   0  0  0  0  0  0  0  0  0  0  0  0
    3.0861    2.1876   -1.9411 C   0  0  0  0  0  0  0  0  0  0  0  0
    1.7649    2.2077   -2.1665 N   0  0  0  0  0  0  0  0  0  0  0  0
    1.0018    1.3904   -1.4445 C   0  0  0  0  0  0  0  0  0  0  0  0
   -4.7356   -0.6267   -0.7217 C   0  0  0  0  0  0  0  0  0  0  0  0
   -5.6932   -1.2046    0.0943 C   0  0  0  0  0  0  0  0  0  0  0  0
   -6.3678   -1.4915    2.1247 H   0  0  0  0  0  0  0  0  0  0  0  0
   -4.5325   -0.1456    3.1026 H   0  0  0  0  0  0  0  0  0  0  0  0
   -2.8011    0.8482    1.6431 H   0  0  0  0  0  0  0  0  0  0  0  0
   -4.1784    1.6163   -2.3730 H   0  0  0  0  0  0  0  0  0  0  0  0
   -2.5271    2.8516   -3.7075 H   0  0  0  0  0  0  0  0  0  0  0  0
   -1.3718   -0.8567    0.6737 H   0  0  0  0  0  0  0  0  0  0  0  0
    1.0194   -0.9048    1.0790 H   0  0  0  0  0  0  0  0  0  0  0  0
    2.6710   -2.2400   -0.2647 H   0  0  0  0  0  0  0  0  0  0  0  0
    3.9036   -3.8539    1.1553 H   0  0  0  0  0  0  0  0  0  0  0  0
    5.4731   -3.0391    2.8903 H   0  0  0  0  0  0  0  0  0  0  0  0
    5.8480   -0.5993    3.1656 H   0  0  0  0  0  0  0  0  0  0  0  0
    4.6694    1.0004    1.6968 H   0  0  0  0  0  0  0  0  0  0  0  0
    4.7746    1.3935   -0.8711 H   0  0  0  0  0  0  0  0  0  0  0  0
    3.6907    2.8620   -2.5207 H   0  0  0  0  0  0  0  0  0  0  0  0
   -4.7959   -0.7499   -1.7960 H   0  0  0  0  0  0  0  0  0  0  0  0
   -6.4994   -1.7903   -0.3392 H   0  0  0  0  0  0  0  0  0  0  0  0
  1  2  2  0
  2  3  1  0
  3  4  2  0
  4  5  1  0
  5  6  2  0
  6  7  1  0
  7  8  2  0
  8  9  1  0
  9 10  2  0
 10 11  1  0
 11 12  2  0
 12 13  1  0
 13 14  2  0
 14 15  1  0
 15 16  2  0
 16 17  1  0
 17 18  2  0
 18 19  1  0
 19 20  2  0
 14 21  1  0
 21 22  2  0
 22 23  1  0
 23 24  2  0
  4 25  1  0
 25 26  2  0
 26  1  1  0
 10  5  1  0
 24 13  1  0
 24  9  1  0
 20 15  1  0
  1 27  1  0
  2 28  1  0
  3 29  1  0
  6 30  1  0
  7 31  1  0
 11 32  1  0
 12 33  1  0
 16 34  1  0
 17 35  1  0
 18 36  1  0
 19 37  1  0
 20 38  1  0
 21 39  1  0
 22 40  1  0
 25 41  1  0
 26 42  1  0
M  END
$$$$

     RDKit          3D

 42 46  0  0  0  0  0  0  0  0999 V2000
   -2.7224    0.7078    5.1077 C   0  0  0  0  0  0  0  0  0  0  0  0
   -1.4015    0.5648    5.5391 C   0  0  0  0  0  0  0  0  0  0  0  0
   -0.3524    0.8485    4.6825 C   0  0  0  0  0  0  0  0  0  0  0  0
   -0.5911    1.2806    3.3758 C   0  0  0  0  0  0  0  0  0  0  0  0
    0.5349    1.6291    2.4794 C   0  0  0  0  0  0  0  0  0  0  0  0
    1.4411    2.5926    2.8242 C   0  0  0  0  0  0  0  0  0  0  0  0
    2.4332    2.9733    1.9121 C   0  0  0  0  0  0  0  0  0  0  0  0
    2.5565    2.4499    0.6950 N   0  0  0  0  0  0  0  0  0  0  0  0
    1.6975    1.4862    0.3334 C   0  0  0  0  0  0  0  0  0  0  0  0
    0.6938    0.9886    1.1969 C   0  0  0  0  0  0  0  0  0  0  0  0
   -0.0738   -0.1302    0.7969 C   0  0  0  0  0  0  0  0  0  0  0  0
    0.0594   -0.6726   -0.4399 C   0  0  0  0  0  0  0  0  0  0  0  0
    0.9560   -0.1263   -1.3896 C   0  0  0  0  0  0  0  0  0  0  0  0
    1.0669   -0.6151   -2.7343 C   0  0  0  0  0  0  0  0  0  0  0  0
    0.1335   -1.6254   -3.2748 C   0  0  0  0  0  0  0  0  0  0  0  0
   -1.2501   -1.4224   -3.2305 C   0  0  0  0  0  0  0  0  0  0  0  0
   -2.1160   -2.3534   -3.7803 C   0  0  0  0  0  0  0  0  0  0  0  0
   -1.6204   -3.5108   -4.3767 C   0  0  0  0  0  0  0  0  0  0  0  0
   -0.2396   -3.7213   -4.4225 C   0  0  0  0  0  0  0  0  0  0  0  0
    0.6225   -2.7830   -3.8812 C   0  0  0  0  0  0  0  0  0  0  0  0
    2.0549   -0.0881   -3.5257 C   0  0  0  0  0  0  0  0  0  0  0  0
    2.8493    0.9483   -3.0421 C   0  0  0  0  0  0  0  0  0  0  0  0
    2.7330    1.4612   -1.8107 N   0  0  0  0  0  0  0  0  0  0  0  0
    1.8179    0.9364   -1.0004 C   0  0  0  0  0  0  0  0  0  0  0  0
   -1.9158    1.4197    2.9457 C   0  0  0  0  0  0  0  0  0  0  0  0
   -2.9727    1.1436    3.8082 C   0  0  0  0  0  0  0  0  0  0  0  0
   -3.5417    0.4851    5.7794 H   0  0  0  0  0  0  0  0  0  0  0  0
   -1.1978    0.2298    6.5502 H   0  0  0  0  0  0  0  0  0  0  0  0
    0.6707    0.7432    5.0214 H   0  0  0  0  0  0  0  0  0  0  0  0
    1.3931    3.0679    3.7994 H   0  0  0  0  0  0  0  0  0  0  0  0
    3.1409    3.7318    2.1955 H   0  0  0  0  0  0  0  0  0  0  0  0
   -0.7646   -0.5498    1.5066 H   0  0  0  0  0  0  0  0  0  0  0  0
   -0.5192   -1.5325   -0.7187 H   0  0  0  0  0  0  0  0  0  0  0  0
   -1.6337   -0.5215   -2.7589 H   0  0  0  0  0  0  0  0  0  0  0  0
   -3.1860   -2.1794   -3.7472 H   0  0  0  0  0  0  0  0  0  0  0  0
   -2.2980   -4.2392   -4.7972 H   0  0  0  0  0  0  0  0  0  0  0  0
    0.1487   -4.6240   -4.8783 H   0  0  0  0  0  0  0  0  0  0  0  0
    1.6930   -2.9401   -3.9260 H   0  0  0  0  0  0  0  0  0  0  0  0
    2.2126   -0.4657   -4.5332 H   0  0  0  0  0  0  0  0  0  0  0  0
    3.6006    1.3774   -3.6823 H   0  0  0  0  0  0  0  0  0  0  0  0
   -2.1208    1.7633    1.9343 H   0  0  0  0  0  0  0  0  0  0  0  0
   -3.9927    1.2717    3.4667 H   0  0  0  0  0  0  0  0  0  0  0  0
  1  2  2  0
  2  3  1  0
  3  4  2  0
  4  5  1  0
  5  6  2  0
  6  7  1  0
  7  8  2  0
  8  9  1  0
  9 10  2  0
 10 11  1  0
 11 12  2  0
 12 13  1  0
 13 14  2  0
 14 15  1  0
 15 16  2  0
 16 17  1  0
 17 18  2  0
 18 19  1  0
 19 20  2  0
 14 21  1  0
 21 22  2  0
 22 23  1  0
 23 24  2  0
  4 25  1  0
 25 26  2  0
 26  1  1  0
 10  5  1  0
 24 13  1  0
 24  9  1  0
 20 15  1  0
  1 27  1  0
  2 28  1  0
  3 29  1  0
  6 30  1  0
  7 31  1  0
 11 32  1  0
 12 33  1  0
 16 34  1  0
 17 35  1  0
 18 36  1  0
 19 37  1  0
 20 38  1  0
 21 39  1  0
 22 40  1  0
 25 41  1  0
 26 42  1  0
M  END
$$$$

     RDKit          3D

 42 46  0  0  0  0  0  0  0  0999 V2000
   -1.2260   -4.4499   -3.6944 C   0  0  0  0  0  0  0  0  0  0  0  0
   -0.0139   -4.8985   -3.1665 C   0  0  0  0  0  0  0  0  0  0  0  0
    0.4434   -4.4060   -1.9599 C   0  0  0  0  0  0  0  0  0  0  0  0
   -0.2907   -3.4573   -1.2448 C   0  0  0  0  0  0  0  0  0  0  0  0
    0.1845   -2.9938    0.0791 C   0  0  0  0  0  0  0  0  0  0  0  0
    0.5090   -3.8993    1.0520 C   0  0  0  0  0  0  0  0  0  0  0  0
    0.9010   -3.4549    2.3187 C   0  0  0  0  0  0  0  0  0  0  0  0
    0.9999   -2.1724    2.6477 N   0  0  0  0  0  0  0  0  0  0  0  0
    0.7101   -1.2549    1.7162 C   0  0  0  0  0  0  0  0  0  0  0  0
    0.2992   -1.5895    0.4032 C   0  0  0  0  0  0  0  0  0  0  0  0
    0.0550   -0.5527   -0.5314 C   0  0  0  0  0  0  0  0  0  0  0  0
    0.1395    0.7555   -0.1764 C   0  0  0  0  0  0  0  0  0  0  0  0
    0.4828    1.1394    1.1427 C   0  0  0  0  0  0  0  0  0  0  0  0
    0.5418    2.5050    1.5742 C   0  0  0  0  0  0  0  0  0  0  0  0
    0.1003    3.6178    0.7080 C   0  0  0  0  0  0  0  0  0  0  0  0
   -1.2020    3.6734    0.1999 C   0  0  0  0  0  0  0  0  0  0  0  0
   -1.6140    4.7534   -0.5639 C   0  0  0  0  0  0  0  0  0  0  0  0
   -0.7261    5.7897   -0.8526 C   0  0  0  0  0  0  0  0  0  0  0  0
    0.5777    5.7361   -0.3560 C   0  0  0  0  0  0  0  0  0  0  0  0
    0.9813    4.6627    0.4192 C   0  0  0  0  0  0  0  0  0  0  0  0
    1.0120    2.7569    2.8391 C   0  0  0  0  0  0  0  0  0  0  0  0
    1.3413    1.6979    3.6812 C   0  0  0  0  0  0  0  0  0  0  0  0
    1.2450    0.4120    3.3254 N   0  0  0  0  0  0  0  0  0  0  0  0
    0.8239    0.1376    2.0931 C   0  0  0  0  0  0  0  0  0  0  0  0
   -1.5055   -3.0135   -1.7771 C   0  0  0  0  0  0  0  0  0  0  0  0
   -1.9690   -3.5039   -2.9911 C   0  0  0  0  0  0  0  0  0  0  0  0
   -1.5849   -4.8341   -4.6383 H   0  0  0  0  0  0  0  0  0  0  0  0
    0.5648   -5.6387   -3.7056 H   0  0  0  0  0  0  0  0  0  0  0  0
    1.3790   -4.7583   -1.5464 H   0  0  0  0  0  0  0  0  0  0  0  0
    0.4639   -4.9651    0.8523 H   0  0  0  0  0  0  0  0  0  0  0  0
    1.1331   -4.1794    3.0786 H   0  0  0  0  0  0  0  0  0  0  0  0
   -0.2030   -0.8221   -1.5384 H   0  0  0  0  0  0  0  0  0  0  0  0
   -0.0389    1.5215   -0.9071 H   0  0  0  0  0  0  0  0  0  0  0  0
   -1.8896    2.8574    0.4146 H   0  0  0  0  0  0  0  0  0  0  0  0
   -2.6285    4.7952   -0.9365 H   0  0  0  0  0  0  0  0  0  0  0  0
   -1.0459    6.6302   -1.4523 H   0  0  0  0  0  0  0  0  0  0  0  0
    1.2713    6.5387   -0.5792 H   0  0  0  0  0  0  0  0  0  0  0  0
    1.9889    4.6266    0.8134 H   0  0  0  0  0  0  0  0  0  0  0  0
    1.1186    3.7792    3.1913 H   0  0  0  0  0  0  0  0  0  0  0  0
    1.6871    1.9086    4.6784 H   0  0  0  0  0  0  0  0  0  0  0  0
   -2.1021   -2.2928   -1.2222 H   0  0  0  0  0  0  0  0  0  0  0  0
   -2.9146   -3.1576   -3.3880 H   0  0  0  0  0  0  0  0  0  0  0  0
  1  2  2  0
  2  3  1  0
  3  4  2  0
  4  5  1  0
  5  6  2  0
  6  7  1  0
  7  8  2  0
  8  9  1  0
  9 10  2  0
 10 11  1  0
 11 12  2  0
 12 13  1  0
 13 14  2  0
 14 15  1  0
 15 16  2  0
 16 17  1  0
 17 18  2  0
 18 19  1  0
 19 20  2  0
 14 21  1  0
 21 22  2  0
 22 23  1  0
 23 24  2  0
  4 25  1  0
 25 26  2  0
 26  1  1  0
 10  5  1  0
 24 13  1  0
 24  9  1  0
 20 15  1  0
  1 27  1  0
  2 28  1  0
  3 29  1  0
  6 30  1  0
  7 31  1  0
 11 32  1  0
 12 33  1  0
 16 34  1  0
 17 35  1  0
 18 36  1  0
 19 37  1  0
 20 38  1  0
 21 39  1  0
 22 40  1  0
 25 41  1  0
 26 42  1  0
M  END
$$$$

     RDKit          3D

 42 46  0  0  0  0  0  0  0  0999 V2000
    0.7862   -5.7208   -1.1635 C   0  0  0  0  0  0  0  0  0  0  0  0
    0.3025   -4.6688   -1.9438 C   0  0  0  0  0  0  0  0  0  0  0  0
    0.7850   -3.3846   -1.7614 C   0  0  0  0  0  0  0  0  0  0  0  0
    1.7778   -3.1205   -0.8102 C   0  0  0  0  0  0  0  0  0  0  0  0
    2.3475   -1.7610   -0.6469 C   0  0  0  0  0  0  0  0  0  0  0  0
    3.6937   -1.5510   -0.7372 C   0  0  0  0  0  0  0  0  0  0  0  0
    4.2076   -0.2512   -0.6521 C   0  0  0  0  0  0  0  0  0  0  0  0
    3.4525    0.8283   -0.4621 N   0  0  0  0  0  0  0  0  0  0  0  0
    2.1307    0.6569   -0.3278 C   0  0  0  0  0  0  0  0  0  0  0  0
    1.5084   -0.6129   -0.3931 C   0  0  0  0  0  0  0  0  0  0  0  0
    0.1137   -0.7143   -0.1738 C   0  0  0  0  0  0  0  0  0  0  0  0
   -0.6413    0.3774    0.0844 C   0  0  0  0  0  0  0  0  0  0  0  0
   -0.0716    1.6720    0.1579 C   0  0  0  0  0  0  0  0  0  0  0  0
   -0.8308    2.8512    0.4491 C   0  0  0  0  0  0  0  0  0  0  0  0
   -2.2499    2.7854    0.8650 C   0  0  0  0  0  0  0  0  0  0  0  0
   -2.6644    1.9528    1.9147 C   0  0  0  0  0  0  0  0  0  0  0  0
   -3.9885    1.9256    2.3177 C   0  0  0  0  0  0  0  0  0  0  0  0
   -4.9333    2.7285    1.6780 C   0  0  0  0  0  0  0  0  0  0  0  0
   -4.5281    3.5636    0.6312 C   0  0  0  0  0  0  0  0  0  0  0  0
   -3.1999    3.5915    0.2367 C   0  0  0  0  0  0  0  0  0  0  0  0
   -0.1902    4.0595    0.3547 C   0  0  0  0  0  0  0  0  0  0  0  0
    1.1741    4.1059    0.0747 C   0  0  0  0  0  0  0  0  0  0  0  0
    1.9220    3.0182   -0.1452 N   0  0  0  0  0  0  0  0  0  0  0  0
    1.3182    1.8337   -0.1004 C   0  0  0  0  0  0  0  0  0  0  0  0
    2.2583   -4.1767   -0.0364 C   0  0  0  0  0  0  0  0  0  0  0  0
    1.7696   -5.4647   -0.2033 C   0  0  0  0  0  0  0  0  0  0  0  0
    0.4043   -6.7228   -1.3043 H   0  0  0  0  0  0  0  0  0  0  0  0
   -0.4481   -4.8631   -2.7009 H   0  0  0  0  0  0  0  0  0  0  0  0
    0.3983   -2.5599   -2.3628 H   0  0  0  0  0  0  0  0  0  0  0  0
    4.3739   -2.3857   -0.8794 H   0  0  0  0  0  0  0  0  0  0  0  0
    5.2685   -0.1023   -0.7497 H   0  0  0  0  0  0  0  0  0  0  0  0
   -0.3375   -1.6877   -0.1958 H   0  0  0  0  0  0  0  0  0  0  0  0
   -1.7008    0.2704    0.2297 H   0  0  0  0  0  0  0  0  0  0  0  0
   -1.9234    1.3302    2.4141 H   0  0  0  0  0  0  0  0  0  0  0  0
   -4.2913    1.2805    3.1344 H   0  0  0  0  0  0  0  0  0  0  0  0
   -5.9676    2.6980    1.9880 H   0  0  0  0  0  0  0  0  0  0  0  0
   -5.2565    4.1898    0.1291 H   0  0  0  0  0  0  0  0  0  0  0  0
   -2.8869    4.2474   -0.5676 H   0  0  0  0  0  0  0  0  0  0  0  0
   -0.7375    4.9849    0.5137 H   0  0  0  0  0  0  0  0  0  0  0  0
    1.6747    5.0594    0.0379 H   0  0  0  0  0  0  0  0  0  0  0  0
    3.0316   -3.9872    0.6973 H   0  0  0  0  0  0  0  0  0  0  0  0
    2.1484   -6.2757    0.4095 H   0  0  0  0  0  0  0  0  0  0  0  0
  1  2  2  0
  2  3  1  0
  3  4  2  0
  4  5  1  0
  5  6  2  0
  6  7  1  0
  7  8  2  0
  8  9  1  0
  9 10  2  0
 10 11  1  0
 11 12  2  0
 12 13  1  0
 13 14  2  0
 14 15  1  0
 15 16  2  0
 16 17  1  0
 17 18  2  0
 18 19  1  0
 19 20  2  0
 14 21  1  0
 21 22  2  0
 22 23  1  0
 23 24  2  0
  4 25  1  0
 25 26  2  0
 26  1  1  0
 10  5  1  0
 24 13  1  0
 24  9  1  0
 20 15  1  0
  1 27  1  0
  2 28  1  0
  3 29  1  0
  6 30  1  0
  7 31  1  0
 11 32  1  0
 12 33  1  0
 16 34  1  0
 17 35  1  0
 18 36  1  0
 19 37  1  0
 20 38  1  0
 21 39  1  0
 22 40  1  0
 25 41  1  0
 26 42  1  0
M  END
$$$$

     RDKit          3D

 42 46  0  0  0  0  0  0  0  0999 V2000
    5.4046   -2.0750   -0.8690 C   0  0  0  0  0  0  0  0  0  0  0  0
    4.3412   -2.4070   -0.0302 C   0  0  0  0  0  0  0  0  0  0  0  0
    3.4741   -1.4247    0.4220 C   0  0  0  0  0  0  0  0  0  0  0  0
    3.6657   -0.0854    0.0620 C   0  0  0  0  0  0  0  0  0  0  0  0
    2.7811    0.9773    0.5883 C   0  0  0  0  0  0  0  0  0  0  0  0
    3.3026    2.0448    1.2627 C   0  0  0  0  0  0  0  0  0  0  0  0
    2.4475    2.9925    1.8325 C   0  0  0  0  0  0  0  0  0  0  0  0
    1.1201    2.9324    1.7581 N   0  0  0  0  0  0  0  0  0  0  0  0
    0.5753    1.9120    1.0785 C   0  0  0  0  0  0  0  0  0  0  0  0
    1.3469    0.9141    0.4366 C   0  0  0  0  0  0  0  0  0  0  0  0
    0.6959   -0.0645   -0.3540 C   0  0  0  0  0  0  0  0  0  0  0  0
   -0.6567   -0.1229   -0.4366 C   0  0  0  0  0  0  0  0  0  0  0  0
   -1.4785    0.7878    0.2723 C   0  0  0  0  0  0  0  0  0  0  0  0
   -2.9101    0.7169    0.2699 C   0  0  0  0  0  0  0  0  0  0  0  0
   -3.6318   -0.4112   -0.3633 C   0  0  0  0  0  0  0  0  0  0  0  0
   -3.3264   -1.7399   -0.0407 C   0  0  0  0  0  0  0  0  0  0  0  0
   -4.0283   -2.7876   -0.6138 C   0  0  0  0  0  0  0  0  0  0  0  0
   -5.0525   -2.5339   -1.5242 C   0  0  0  0  0  0  0  0  0  0  0  0
   -5.3640   -1.2108   -1.8510 C   0  0  0  0  0  0  0  0  0  0  0  0
   -4.6646   -0.1673   -1.2700 C   0  0  0  0  0  0  0  0  0  0  0  0
   -3.5962    1.7211    0.9064 C   0  0  0  0  0  0  0  0  0  0  0  0
   -2.8991    2.7262    1.5772 C   0  0  0  0  0  0  0  0  0  0  0  0
   -1.5623    2.7911    1.6362 N   0  0  0  0  0  0  0  0  0  0  0  0
   -0.8701    1.8457    1.0046 C   0  0  0  0  0  0  0  0  0  0  0  0
    4.7392    0.2397   -0.7641 C   0  0  0  0  0  0  0  0  0  0  0  0
    5.5965   -0.7406   -1.2358 C   0  0  0  0  0  0  0  0  0  0  0  0
    6.0727   -2.8420   -1.2351 H   0  0  0  0  0  0  0  0  0  0  0  0
    4.1981   -3.4379    0.2733 H   0  0  0  0  0  0  0  0  0  0  0  0
    2.6454   -1.6777    1.0767 H   0  0  0  0  0  0  0  0  0  0  0  0
    4.3774    2.1617    1.3620 H   0  0  0  0  0  0  0  0  0  0  0  0
    2.8755    3.8263    2.3617 H   0  0  0  0  0  0  0  0  0  0  0  0
    1.2985   -0.7669   -0.8977 H   0  0  0  0  0  0  0  0  0  0  0  0
   -1.1227   -0.8746   -1.0468 H   0  0  0  0  0  0  0  0  0  0  0  0
   -2.5306   -1.9375    0.6747 H   0  0  0  0  0  0  0  0  0  0  0  0
   -3.7832   -3.8107   -0.3509 H   0  0  0  0  0  0  0  0  0  0  0  0
   -5.5988   -3.3529   -1.9705 H   0  0  0  0  0  0  0  0  0  0  0  0
   -6.1539   -1.0077   -2.5642 H   0  0  0  0  0  0  0  0  0  0  0  0
   -4.9204    0.8579   -1.5169 H   0  0  0  0  0  0  0  0  0  0  0  0
   -4.6813    1.7320    0.9036 H   0  0  0  0  0  0  0  0  0  0  0  0
   -3.4478    3.4956    2.0919 H   0  0  0  0  0  0  0  0  0  0  0  0
    4.9039    1.2774   -1.0256 H   0  0  0  0  0  0  0  0  0  0  0  0
    6.4170   -0.4737   -1.8910 H   0  0  0  0  0  0  0  0  0  0  0  0
  1  2  2  0
  2  3  1  0
  3  4  2  0
  4  5  1  0
  5  6  2  0
  6  7  1  0
  7  8  2  0
  8  9  1  0
  9 10  2  0
 10 11  1  0
 11 12  2  0
 12 13  1  0
 13 14  2  0
 14 15  1  0
 15 16  2  0
 16 17  1  0
 17 18  2  0
 18 19  1  0
 19 20  2  0
 14 21  1  0
 21 22  2  0
 22 23  1  0
 23 24  2  0
  4 25  1  0
 25 26  2  0
 26  1  1  0
 10  5  1  0
 24 13  1  0
 24  9  1  0
 20 15  1  0
  1 27  1  0
  2 28  1  0
  3 29  1  0
  6 30  1  0
  7 31  1  0
 11 32  1  0
 12 33  1  0
 16 34  1  0
 17 35  1  0
 18 36  1  0
 19 37  1  0
 20 38  1  0
 21 39  1  0
 22 40  1  0
 25 41  1  0
 26 42  1  0
M  END
$$$$

     RDKit          3D

 42 46  0  0  0  0  0  0  0  0999 V2000
   -4.6386    2.1814    2.8942 C   0  0  0  0  0  0  0  0  0  0  0  0
   -3.9102    3.3529    2.6766 C   0  0  0  0  0  0  0  0  0  0  0  0
   -2.9773    3.4171    1.6608 C   0  0  0  0  0  0  0  0  0  0  0  0
   -2.7298    2.3122    0.8444 C   0  0  0  0  0  0  0  0  0  0  0  0
   -1.7695    2.4119   -0.2775 C   0  0  0  0  0  0  0  0  0  0  0  0
   -1.8837    3.4073   -1.2081 C   0  0  0  0  0  0  0  0  0  0  0  0
   -1.0239    3.4338   -2.3122 C   0  0  0  0  0  0  0  0  0  0  0  0
   -0.0604    2.5404   -2.5180 N   0  0  0  0  0  0  0  0  0  0  0  0
    0.1076    1.5749   -1.6051 C   0  0  0  0  0  0  0  0  0  0  0  0
   -0.7053    1.4520   -0.4514 C   0  0  0  0  0  0  0  0  0  0  0  0
   -0.4199    0.4325    0.4902 C   0  0  0  0  0  0  0  0  0  0  0  0
    0.5642   -0.4721    0.2719 C   0  0  0  0  0  0  0  0  0  0  0  0
    1.3586   -0.4340   -0.9009 C   0  0  0  0  0  0  0  0  0  0  0  0
    2.3791   -1.3977   -1.1922 C   0  0  0  0  0  0  0  0  0  0  0  0
    2.5710   -2.6039   -0.3607 C   0  0  0  0  0  0  0  0  0  0  0  0
    1.5253   -3.5092   -0.1498 C   0  0  0  0  0  0  0  0  0  0  0  0
    1.7304   -4.6555    0.6016 C   0  0  0  0  0  0  0  0  0  0  0  0
    2.9813   -4.9139    1.1641 C   0  0  0  0  0  0  0  0  0  0  0  0
    4.0297   -4.0147    0.9549 C   0  0  0  0  0  0  0  0  0  0  0  0
    3.8233   -2.8775    0.1926 C   0  0  0  0  0  0  0  0  0  0  0  0
    3.1732   -1.1806   -2.2899 C   0  0  0  0  0  0  0  0  0  0  0  0
    2.9319   -0.0858   -3.1164 C   0  0  0  0  0  0  0  0  0  0  0  0
    1.9507    0.8013   -2.9009 N   0  0  0  0  0  0  0  0  0  0  0  0
    1.1778    0.6258   -1.8295 C   0  0  0  0  0  0  0  0  0  0  0  0
   -3.4494    1.1356    1.0748 C   0  0  0  0  0  0  0  0  0  0  0  0
   -4.4073    1.0738    2.0783 C   0  0  0  0  0  0  0  0  0  0  0  0
   -5.3703    2.1344    3.6884 H   0  0  0  0  0  0  0  0  0  0  0  0
   -4.0810    4.2149    3.3114 H   0  0  0  0  0  0  0  0  0  0  0  0
   -2.4233    4.3306    1.4830 H   0  0  0  0  0  0  0  0  0  0  0  0
   -2.6366    4.1809   -1.1000 H   0  0  0  0  0  0  0  0  0  0  0  0
   -1.1381    4.2135   -3.0450 H   0  0  0  0  0  0  0  0  0  0  0  0
   -0.9954    0.3959    1.3963 H   0  0  0  0  0  0  0  0  0  0  0  0
    0.7660   -1.2338    1.0044 H   0  0  0  0  0  0  0  0  0  0  0  0
    0.5519   -3.3080   -0.5949 H   0  0  0  0  0  0  0  0  0  0  0  0
    0.9177   -5.3591    0.7456 H   0  0  0  0  0  0  0  0  0  0  0  0
    3.1364   -5.8038    1.7583 H   0  0  0  0  0  0  0  0  0  0  0  0
    5.0023   -4.2076    1.3889 H   0  0  0  0  0  0  0  0  0  0  0  0
    4.6434   -2.1930    0.0098 H   0  0  0  0  0  0  0  0  0  0  0  0
    3.9796   -1.8701   -2.5268 H   0  0  0  0  0  0  0  0  0  0  0  0
    3.5542    0.0666   -3.9854 H   0  0  0  0  0  0  0  0  0  0  0  0
   -3.2566    0.2633    0.4499 H   0  0  0  0  0  0  0  0  0  0  0  0
   -4.9793    0.1674    2.2243 H   0  0  0  0  0  0  0  0  0  0  0  0
  1  2  2  0
  2  3  1  0
  3  4  2  0
  4  5  1  0
  5  6  2  0
  6  7  1  0
  7  8  2  0
  8  9  1  0
  9 10  2  0
 10 11  1  0
 11 12  2  0
 12 13  1  0
 13 14  2  0
 14 15  1  0
 15 16  2  0
 16 17  1  0
 17 18  2  0
 18 19  1  0
 19 20  2  0
 14 21  1  0
 21 22  2  0
 22 23  1  0
 23 24  2  0
  4 25  1  0
 25 26  2  0
 26  1  1  0
 10  5  1  0
 24 13  1  0
 24  9  1  0
 20 15  1  0
  1 27  1  0
  2 28  1  0
  3 29  1  0
  6 30  1  0
  7 31  1  0
 11 32  1  0
 12 33  1  0
 16 34  1  0
 17 35  1  0
 18 36  1  0
 19 37  1  0
 20 38  1  0
 21 39  1  0
 22 40  1  0
 25 41  1  0
 26 42  1  0
M  END
$$$$

     RDKit          3D

 42 46  0  0  0  0  0  0  0  0999 V2000
    5.3199    2.4126   -0.1327 C   0  0  0  0  0  0  0  0  0  0  0  0
    4.6706    3.1666   -1.1116 C   0  0  0  0  0  0  0  0  0  0  0  0
    3.2923    3.2747   -1.1083 C   0  0  0  0  0  0  0  0  0  0  0  0
    2.5253    2.6289   -0.1352 C   0  0  0  0  0  0  0  0  0  0  0  0
    1.0550    2.7993   -0.1073 C   0  0  0  0  0  0  0  0  0  0  0  0
    0.4927    4.0423   -0.0723 C   0  0  0  0  0  0  0  0  0  0  0  0
   -0.8941    4.1794    0.0510 C   0  0  0  0  0  0  0  0  0  0  0  0
   -1.7308    3.1486    0.1447 N   0  0  0  0  0  0  0  0  0  0  0  0
   -1.2130    1.9150    0.0961 C   0  0  0  0  0  0  0  0  0  0  0  0
    0.1689    1.6601   -0.0750 C   0  0  0  0  0  0  0  0  0  0  0  0
    0.6158    0.3262   -0.2388 C   0  0  0  0  0  0  0  0  0  0  0  0
   -0.2430   -0.7207   -0.1688 C   0  0  0  0  0  0  0  0  0  0  0  0
   -1.6214   -0.5213    0.0837 C   0  0  0  0  0  0  0  0  0  0  0  0
   -2.5505   -1.6060    0.1978 C   0  0  0  0  0  0  0  0  0  0  0  0
   -2.0964   -3.0079    0.0873 C   0  0  0  0  0  0  0  0  0  0  0  0
   -1.4236   -3.6292    1.1445 C   0  0  0  0  0  0  0  0  0  0  0  0
   -1.0107   -4.9486    1.0321 C   0  0  0  0  0  0  0  0  0  0  0  0
   -1.2526   -5.6655   -0.1376 C   0  0  0  0  0  0  0  0  0  0  0  0
   -1.9268   -5.0517   -1.1936 C   0  0  0  0  0  0  0  0  0  0  0  0
   -2.3497   -3.7341   -1.0757 C   0  0  0  0  0  0  0  0  0  0  0  0
   -3.8688   -1.2963    0.4058 C   0  0  0  0  0  0  0  0  0  0  0  0
   -4.2601    0.0362    0.5264 C   0  0  0  0  0  0  0  0  0  0  0  0
   -3.4114    1.0727    0.4416 N   0  0  0  0  0  0  0  0  0  0  0  0
   -2.1274    0.8009    0.2164 C   0  0  0  0  0  0  0  0  0  0  0  0
    3.1814    1.8703    0.8396 C   0  0  0  0  0  0  0  0  0  0  0  0
    4.5656    1.7676    0.8455 C   0  0  0  0  0  0  0  0  0  0  0  0
    6.3984    2.3306   -0.1346 H   0  0  0  0  0  0  0  0  0  0  0  0
    5.2531    3.6660   -1.8771 H   0  0  0  0  0  0  0  0  0  0  0  0
    2.7869    3.8679   -1.8609 H   0  0  0  0  0  0  0  0  0  0  0  0
    1.1146    4.9335   -0.1301 H   0  0  0  0  0  0  0  0  0  0  0  0
   -1.3227    5.1659    0.0744 H   0  0  0  0  0  0  0  0  0  0  0  0
    1.6613    0.1610   -0.4276 H   0  0  0  0  0  0  0  0  0  0  0  0
    0.1087   -1.7285   -0.3005 H   0  0  0  0  0  0  0  0  0  0  0  0
   -1.2370   -3.0702    2.0541 H   0  0  0  0  0  0  0  0  0  0  0  0
   -0.4940   -5.4253    1.8559 H   0  0  0  0  0  0  0  0  0  0  0  0
   -0.9213   -6.6904   -0.2269 H   0  0  0  0  0  0  0  0  0  0  0  0
   -2.1128   -5.6020   -2.1053 H   0  0  0  0  0  0  0  0  0  0  0  0
   -2.8961   -3.2667   -1.8857 H   0  0  0  0  0  0  0  0  0  0  0  0
   -4.6094   -2.0900    0.4819 H   0  0  0  0  0  0  0  0  0  0  0  0
   -5.2970    0.2722    0.6996 H   0  0  0  0  0  0  0  0  0  0  0  0
    2.6004    1.3709    1.6133 H   0  0  0  0  0  0  0  0  0  0  0  0
    5.0599    1.1852    1.6140 H   0  0  0  0  0  0  0  0  0  0  0  0
  1  2  2  0
  2  3  1  0
  3  4  2  0
  4  5  1  0
  5  6  2  0
  6  7  1  0
  7  8  2  0
  8  9  1  0
  9 10  2  0
 10 11  1  0
 11 12  2  0
 12 13  1  0
 13 14  2  0
 14 15  1  0
 15 16  2  0
 16 17  1  0
 17 18  2  0
 18 19  1  0
 19 20  2  0
 14 21  1  0
 21 22  2  0
 22 23  1  0
 23 24  2  0
  4 25  1  0
 25 26  2  0
 26  1  1  0
 10  5  1  0
 24 13  1  0
 24  9  1  0
 20 15  1  0
  1 27  1  0
  2 28  1  0
  3 29  1  0
  6 30  1  0
  7 31  1  0
 11 32  1  0
 12 33  1  0
 16 34  1  0
 17 35  1  0
 18 36  1  0
 19 37  1  0
 20 38  1  0
 21 39  1  0
 22 40  1  0
 25 41  1  0
 26 42  1  0
M  END
$$$$

     RDKit          3D

 42 46  0  0  0  0  0  0  0  0999 V2000
    1.7904   -0.0656    5.5703 C   0  0  0  0  0  0  0  0  0  0  0  0
    1.6928    0.9101    4.5780 C   0  0  0  0  0  0  0  0  0  0  0  0
    1.8687    0.5714    3.2466 C   0  0  0  0  0  0  0  0  0  0  0  0
    2.1553   -0.7505    2.8776 C   0  0  0  0  0  0  0  0  0  0  0  0
    2.3850   -1.1157    1.4615 C   0  0  0  0  0  0  0  0  0  0  0  0
    3.5021   -1.8051    1.0758 C   0  0  0  0  0  0  0  0  0  0  0  0
    3.7537   -2.0204   -0.2844 C   0  0  0  0  0  0  0  0  0  0  0  0
    2.9569   -1.5909   -1.2615 N   0  0  0  0  0  0  0  0  0  0  0  0
    1.8403   -0.9374   -0.9137 C   0  0  0  0  0  0  0  0  0  0  0  0
    1.4596   -0.7164    0.4298 C   0  0  0  0  0  0  0  0  0  0  0  0
    0.1886   -0.1561    0.7119 C   0  0  0  0  0  0  0  0  0  0  0  0
   -0.6499    0.2250   -0.2827 C   0  0  0  0  0  0  0  0  0  0  0  0
   -0.2869    0.0908   -1.6446 C   0  0  0  0  0  0  0  0  0  0  0  0
   -1.1372    0.5003   -2.7231 C   0  0  0  0  0  0  0  0  0  0  0  0
   -2.5314    0.9340   -2.4839 C   0  0  0  0  0  0  0  0  0  0  0  0
   -2.9695    2.1797   -2.9376 C   0  0  0  0  0  0  0  0  0  0  0  0
   -4.2816    2.5787   -2.7492 C   0  0  0  0  0  0  0  0  0  0  0  0
   -5.1919    1.7341   -2.1071 C   0  0  0  0  0  0  0  0  0  0  0  0
   -4.7655    0.4859   -1.6543 C   0  0  0  0  0  0  0  0  0  0  0  0
   -3.4468    0.0936   -1.8362 C   0  0  0  0  0  0  0  0  0  0  0  0
   -0.6205    0.4516   -3.9923 C   0  0  0  0  0  0  0  0  0  0  0  0
    0.6630   -0.0505   -4.2034 C   0  0  0  0  0  0  0  0  0  0  0  0
    1.4578   -0.4975   -3.2201 N   0  0  0  0  0  0  0  0  0  0  0  0
    0.9898   -0.4417   -1.9757 C   0  0  0  0  0  0  0  0  0  0  0  0
    2.2598   -1.7171    3.8773 C   0  0  0  0  0  0  0  0  0  0  0  0
    2.0759   -1.3845    5.2096 C   0  0  0  0  0  0  0  0  0  0  0  0
    1.6404    0.1958    6.6082 H   0  0  0  0  0  0  0  0  0  0  0  0
    1.4824    1.9373    4.8519 H   0  0  0  0  0  0  0  0  0  0  0  0
    1.7939    1.3338    2.4708 H   0  0  0  0  0  0  0  0  0  0  0  0
    4.1965   -2.1886    1.8159 H   0  0  0  0  0  0  0  0  0  0  0  0
    4.6402   -2.5576   -0.5761 H   0  0  0  0  0  0  0  0  0  0  0  0
   -0.1142   -0.0552    1.7365 H   0  0  0  0  0  0  0  0  0  0  0  0
   -1.6091    0.6493   -0.0486 H   0  0  0  0  0  0  0  0  0  0  0  0
   -2.2685    2.8290   -3.4471 H   0  0  0  0  0  0  0  0  0  0  0  0
   -4.6054    3.5550   -3.0985 H   0  0  0  0  0  0  0  0  0  0  0  0
   -6.2180    2.0447   -1.9618 H   0  0  0  0  0  0  0  0  0  0  0  0
   -5.4639   -0.1819   -1.1631 H   0  0  0  0  0  0  0  0  0  0  0  0
   -3.1204   -0.8868   -1.4858 H   0  0  0  0  0  0  0  0  0  0  0  0
   -1.2074    0.8034   -4.8390 H   0  0  0  0  0  0  0  0  0  0  0  0
    1.0561   -0.0951   -5.2069 H   0  0  0  0  0  0  0  0  0  0  0  0
    2.4892   -2.7388    3.5992 H   0  0  0  0  0  0  0  0  0  0  0  0
    2.1499   -2.1500    5.9759 H   0  0  0  0  0  0  0  0  0  0  0  0
  1  2  2  0
  2  3  1  0
  3  4  2  0
  4  5  1  0
  5  6  2  0
  6  7  1  0
  7  8  2  0
  8  9  1  0
  9 10  2  0
 10 11  1  0
 11 12  2  0
 12 13  1  0
 13 14  2  0
 14 15  1  0
 15 16  2  0
 16 17  1  0
 17 18  2  0
 18 19  1  0
 19 20  2  0
 14 21  1  0
 21 22  2  0
 22 23  1  0
 23 24  2  0
  4 25  1  0
 25 26  2  0
 26  1  1  0
 10  5  1  0
 24 13  1  0
 24  9  1  0
 20 15  1  0
  1 27  1  0
  2 28  1  0
  3 29  1  0
  6 30  1  0
  7 31  1  0
 11 32  1  0
 12 33  1  0
 16 34  1  0
 17 35  1  0
 18 36  1  0
 19 37  1  0
 20 38  1  0
 21 39  1  0
 22 40  1  0
 25 41  1  0
 26 42  1  0
M  END
$$$$
