
     RDKit          3D

 26 27  0  0  0  0  0  0  0  0999 V2000
    2.1385   -3.3442   -3.0240 C   0  0  0  0  0  0  0  0  0  0  0  0
    1.5266   -2.3651   -2.0817 C   0  0  0  0  0  0  0  0  0  0  0  0
    1.9163   -2.2642   -0.7428 C   0  0  0  0  0  0  0  0  0  0  0  0
    1.3259   -1.3312    0.0800 C   0  0  0  0  0  0  0  0  0  0  0  0
    0.3440   -0.4964   -0.4300 C   0  0  0  0  0  0  0  0  0  0  0  0
   -0.3238    0.5132    0.4281 C   0  0  0  0  0  0  0  0  0  0  0  0
   -1.3067    1.3458   -0.0846 C   0  0  0  0  0  0  0  0  0  0  0  0
   -1.9148    2.2633    0.7423 C   0  0  0  0  0  0  0  0  0  0  0  0
   -1.5427    2.3503    2.0876 C   0  0  0  0  0  0  0  0  0  0  0  0
   -2.1555    3.3303    3.0263 C   0  0  0  0  0  0  0  0  0  0  0  0
   -0.5386    1.4717    2.4973 C   0  0  0  0  0  0  0  0  0  0  0  0
    0.0590    0.5821    1.7085 N   0  0  0  0  0  0  0  0  0  0  0  0
   -0.0415   -0.5670   -1.7095 N   0  0  0  0  0  0  0  0  0  0  0  0
    0.5336   -1.4750   -2.4933 C   0  0  0  0  0  0  0  0  0  0  0  0
    1.4150   -3.6931   -3.7569 H   0  0  0  0  0  0  0  0  0  0  0  0
    2.5354   -4.2067   -2.4950 H   0  0  0  0  0  0  0  0  0  0  0  0
    2.9629   -2.8919   -3.5632 H   0  0  0  0  0  0  0  0  0  0  0  0
    2.6798   -2.9258   -0.3590 H   0  0  0  0  0  0  0  0  0  0  0  0
    1.6154   -1.2410    1.1180 H   0  0  0  0  0  0  0  0  0  0  0  0
   -1.5857    1.2582   -1.1266 H   0  0  0  0  0  0  0  0  0  0  0  0
   -2.6821    2.9237    0.3597 H   0  0  0  0  0  0  0  0  0  0  0  0
   -1.5831    4.2486    3.0489 H   0  0  0  0  0  0  0  0  0  0  0  0
   -3.1659    3.5890    2.7217 H   0  0  0  0  0  0  0  0  0  0  0  0
   -2.1944    2.9367    4.0394 H   0  0  0  0  0  0  0  0  0  0  0  0
   -0.1989    1.4864    3.5276 H   0  0  0  0  0  0  0  0  0  0  0  0
    0.1813   -1.4978   -3.5188 H   0  0  0  0  0  0  0  0  0  0  0  0
  1  2  1  0
  2  3  2  0
  3  4  1  0
  4  5  2  0
  5  6  1  0
  6  7  2  0
  7  8  1  0
  8  9  2  0
  9 10  1  0
  9 11  1  0
 11 12  2  0
  5 13  1  0
 13 14  2  0
 14  2  1  0
 12  6  1  0
  1 15  1  0
  1 16  1  0
  1 17  1  0
  3 18  1  0
  4 19  1  0
  7 20  1  0
  8 21  1  0
 10 22  1  0
 10 23  1  0
 10 24  1  0
 11 25  1  0
 14 26  1  0
M  END
$$$$

     RDKit          3D

 26 27  0  0  0  0  0  0  0  0999 V2000
    1.9330   -4.5236   -0.8445 C   0  0  0  0  0  0  0  0  0  0  0  0
    1.3639   -3.1807   -0.5396 C   0  0  0  0  0  0  0  0  0  0  0  0
    1.5754   -2.5279    0.6776 C   0  0  0  0  0  0  0  0  0  0  0  0
    1.0344   -1.2809    0.8964 C   0  0  0  0  0  0  0  0  0  0  0  0
    0.2789   -0.6803   -0.0978 C   0  0  0  0  0  0  0  0  0  0  0  0
   -0.3112    0.6653    0.1057 C   0  0  0  0  0  0  0  0  0  0  0  0
   -1.0564    1.2767   -0.8900 C   0  0  0  0  0  0  0  0  0  0  0  0
   -1.5819    2.5292   -0.6684 C   0  0  0  0  0  0  0  0  0  0  0  0
   -1.3639    3.1769    0.5542 C   0  0  0  0  0  0  0  0  0  0  0  0
   -1.9008    4.5371    0.8355 C   0  0  0  0  0  0  0  0  0  0  0  0
   -0.6051    2.4713    1.4865 C   0  0  0  0  0  0  0  0  0  0  0  0
   -0.0913    1.2597    1.2835 N   0  0  0  0  0  0  0  0  0  0  0  0
    0.0588   -1.2834   -1.2736 N   0  0  0  0  0  0  0  0  0  0  0  0
    0.5878   -2.4881   -1.4720 C   0  0  0  0  0  0  0  0  0  0  0  0
    2.2628   -5.0293    0.0603 H   0  0  0  0  0  0  0  0  0  0  0  0
    1.2012   -5.1547   -1.3410 H   0  0  0  0  0  0  0  0  0  0  0  0
    2.7892   -4.4404   -1.5038 H   0  0  0  0  0  0  0  0  0  0  0  0
    2.1668   -3.0065    1.4451 H   0  0  0  0  0  0  0  0  0  0  0  0
    1.1898   -0.7610    1.8325 H   0  0  0  0  0  0  0  0  0  0  0  0
   -1.2159    0.7606   -1.8283 H   0  0  0  0  0  0  0  0  0  0  0  0
   -2.1645    3.0256   -1.4327 H   0  0  0  0  0  0  0  0  0  0  0  0
   -1.4084    5.2786    0.2174 H   0  0  0  0  0  0  0  0  0  0  0  0
   -1.7641    4.8191    1.8777 H   0  0  0  0  0  0  0  0  0  0  0  0
   -2.9585    4.5902    0.6011 H   0  0  0  0  0  0  0  0  0  0  0  0
   -0.4001    2.9082    2.4562 H   0  0  0  0  0  0  0  0  0  0  0  0
    0.3802   -2.9415   -2.4378 H   0  0  0  0  0  0  0  0  0  0  0  0
  1  2  1  0
  2  3  2  0
  3  4  1  0
  4  5  2  0
  5  6  1  0
  6  7  2  0
  7  8  1  0
  8  9  2  0
  9 10  1  0
  9 11  1  0
 11 12  2  0
  5 13  1  0
 13 14  2  0
 14  2  1  0
 12  6  1  0
  1 15  1  0
  1 16  1  0
  1 17  1  0
  3 18  1  0
  4 19  1  0
  7 20  1  0
  8 21  1  0
 10 22  1  0
 10 23  1  0
 10 24  1  0
 11 25  1  0
 14 26  1  0
M  END
$$$$

     RDKit          3D

 26 27  0  0  0  0  0  0  0  0999 V2000
    3.1026    0.7234   -3.8410 C   0  0  0  0  0  0  0  0  0  0  0  0
    2.1505    0.5344   -2.7110 C   0  0  0  0  0  0  0  0  0  0  0  0
    0.7701    0.7061   -2.8675 C   0  0  0  0  0  0  0  0  0  0  0  0
   -0.0760    0.5042   -1.8016 C   0  0  0  0  0  0  0  0  0  0  0  0
    0.4505    0.1321   -0.5740 C   0  0  0  0  0  0  0  0  0  0  0  0
   -0.4328   -0.1002    0.5945 C   0  0  0  0  0  0  0  0  0  0  0  0
    0.0871   -0.5135    1.8106 C   0  0  0  0  0  0  0  0  0  0  0  0
   -0.7647   -0.7370    2.8699 C   0  0  0  0  0  0  0  0  0  0  0  0
   -2.1387   -0.5344    2.7195 C   0  0  0  0  0  0  0  0  0  0  0  0
   -3.1163   -0.7488    3.8216 C   0  0  0  0  0  0  0  0  0  0  0  0
   -2.5547   -0.1053    1.4579 C   0  0  0  0  0  0  0  0  0  0  0  0
   -1.7455    0.1065    0.4253 N   0  0  0  0  0  0  0  0  0  0  0  0
    1.7646   -0.0380   -0.3950 N   0  0  0  0  0  0  0  0  0  0  0  0
    2.5746    0.1629   -1.4355 C   0  0  0  0  0  0  0  0  0  0  0  0
    4.1364    0.6433   -3.5108 H   0  0  0  0  0  0  0  0  0  0  0  0
    2.9335   -0.0192   -4.6126 H   0  0  0  0  0  0  0  0  0  0  0  0
    2.9637    1.6922   -4.3087 H   0  0  0  0  0  0  0  0  0  0  0  0
    0.3791    0.9986   -3.8328 H   0  0  0  0  0  0  0  0  0  0  0  0
   -1.1441    0.6275   -1.9106 H   0  0  0  0  0  0  0  0  0  0  0  0
    1.1550   -0.6528    1.9135 H   0  0  0  0  0  0  0  0  0  0  0  0
   -0.3772   -1.0692    3.8224 H   0  0  0  0  0  0  0  0  0  0  0  0
   -2.6424   -1.1842    4.6982 H   0  0  0  0  0  0  0  0  0  0  0  0
   -3.5745    0.1899    4.1213 H   0  0  0  0  0  0  0  0  0  0  0  0
   -3.9186   -1.4096    3.5062 H   0  0  0  0  0  0  0  0  0  0  0  0
   -3.6110    0.0779    1.2775 H   0  0  0  0  0  0  0  0  0  0  0  0
    3.6288    0.0134   -1.2372 H   0  0  0  0  0  0  0  0  0  0  0  0
  1  2  1  0
  2  3  2  0
  3  4  1  0
  4  5  2  0
  5  6  1  0
  6  7  2  0
  7  8  1  0
  8  9  2  0
  9 10  1  0
  9 11  1  0
 11 12  2  0
  5 13  1  0
 13 14  2  0
 14  2  1  0
 12  6  1  0
  1 15  1  0
  1 16  1  0
  1 17  1  0
  3 18  1  0
  4 19  1  0
  7 20  1  0
  8 21  1  0
 10 22  1  0
 10 23  1  0
 10 24  1  0
 11 25  1  0
 14 26  1  0
M  END
$$$$

     RDKit          3D

 26 27  0  0  0  0  0  0  0  0999 V2000
    3.5143   -3.4592    0.7608 C   0  0  0  0  0  0  0  0  0  0  0  0
    2.4812   -2.4017    0.5760 C   0  0  0  0  0  0  0  0  0  0  0  0
    2.4950   -1.2007    1.2908 C   0  0  0  0  0  0  0  0  0  0  0  0
    1.5244   -0.2513    1.0637 C   0  0  0  0  0  0  0  0  0  0  0  0
    0.5367   -0.4974    0.1238 C   0  0  0  0  0  0  0  0  0  0  0  0
   -0.5263    0.5020   -0.1422 C   0  0  0  0  0  0  0  0  0  0  0  0
   -1.5052    0.2656   -1.0941 C   0  0  0  0  0  0  0  0  0  0  0  0
   -2.4888    1.2081   -1.3019 C   0  0  0  0  0  0  0  0  0  0  0  0
   -2.4944    2.3930   -0.5565 C   0  0  0  0  0  0  0  0  0  0  0  0
   -3.5254    3.4533   -0.7418 C   0  0  0  0  0  0  0  0  0  0  0  0
   -1.4562    2.5331    0.3659 C   0  0  0  0  0  0  0  0  0  0  0  0
   -0.4996    1.6325    0.5724 N   0  0  0  0  0  0  0  0  0  0  0  0
    0.4992   -1.6383   -0.5734 N   0  0  0  0  0  0  0  0  0  0  0  0
    1.4419   -2.5488   -0.3439 C   0  0  0  0  0  0  0  0  0  0  0  0
    4.0795   -3.3043    1.6774 H   0  0  0  0  0  0  0  0  0  0  0  0
    4.2205   -3.4535   -0.0626 H   0  0  0  0  0  0  0  0  0  0  0  0
    3.0639   -4.4486    0.7963 H   0  0  0  0  0  0  0  0  0  0  0  0
    3.2719   -1.0228    2.0204 H   0  0  0  0  0  0  0  0  0  0  0  0
    1.5211    0.6853    1.6030 H   0  0  0  0  0  0  0  0  0  0  0  0
   -1.4826   -0.6590   -1.6568 H   0  0  0  0  0  0  0  0  0  0  0  0
   -3.2629    1.0429   -2.0390 H   0  0  0  0  0  0  0  0  0  0  0  0
   -4.4705    3.0338   -1.0739 H   0  0  0  0  0  0  0  0  0  0  0  0
   -3.2089    4.1658   -1.4936 H   0  0  0  0  0  0  0  0  0  0  0  0
   -3.7004    4.0020    0.1818 H   0  0  0  0  0  0  0  0  0  0  0  0
   -1.3942    3.4291    0.9745 H   0  0  0  0  0  0  0  0  0  0  0  0
    1.3656   -3.4608   -0.9269 H   0  0  0  0  0  0  0  0  0  0  0  0
  1  2  1  0
  2  3  2  0
  3  4  1  0
  4  5  2  0
  5  6  1  0
  6  7  2  0
  7  8  1  0
  8  9  2  0
  9 10  1  0
  9 11  1  0
 11 12  2  0
  5 13  1  0
 13 14  2  0
 14  2  1  0
 12  6  1  0
  1 15  1  0
  1 16  1  0
  1 17  1  0
  3 18  1  0
  4 19  1  0
  7 20  1  0
  8 21  1  0
 10 22  1  0
 10 23  1  0
 10 24  1  0
 11 25  1  0
 14 26  1  0
M  END
$$$$

     RDKit          3D

 26 27  0  0  0  0  0  0  0  0999 V2000
    3.4634   -3.5548   -0.5113 C   0  0  0  0  0  0  0  0  0  0  0  0
    2.4616   -2.4600   -0.3720 C   0  0  0  0  0  0  0  0  0  0  0  0
    2.7803   -1.1184   -0.6087 C   0  0  0  0  0  0  0  0  0  0  0  0
    1.8143   -0.1461   -0.4764 C   0  0  0  0  0  0  0  0  0  0  0  0
    0.5294   -0.5074   -0.0996 C   0  0  0  0  0  0  0  0  0  0  0  0
   -0.5323    0.5113    0.0780 C   0  0  0  0  0  0  0  0  0  0  0  0
   -1.7955    0.1513    0.5210 C   0  0  0  0  0  0  0  0  0  0  0  0
   -2.7598    1.1213    0.6794 C   0  0  0  0  0  0  0  0  0  0  0  0
   -2.4634    2.4567    0.3887 C   0  0  0  0  0  0  0  0  0  0  0  0
   -3.4687    3.5502    0.5071 C   0  0  0  0  0  0  0  0  0  0  0  0
   -1.1607    2.7093   -0.0481 C   0  0  0  0  0  0  0  0  0  0  0  0
   -0.2198    1.7824   -0.1993 N   0  0  0  0  0  0  0  0  0  0  0  0
    0.1961   -1.7841    0.1194 N   0  0  0  0  0  0  0  0  0  0  0  0
    1.1365   -2.7147   -0.0145 C   0  0  0  0  0  0  0  0  0  0  0  0
    4.4510   -3.2228   -0.2022 H   0  0  0  0  0  0  0  0  0  0  0  0
    3.1918   -4.4224    0.0854 H   0  0  0  0  0  0  0  0  0  0  0  0
    3.5430   -3.8706   -1.5436 H   0  0  0  0  0  0  0  0  0  0  0  0
    3.7895   -0.8548   -0.8973 H   0  0  0  0  0  0  0  0  0  0  0  0
    2.0406    0.8966   -0.6582 H   0  0  0  0  0  0  0  0  0  0  0  0
   -2.0019   -0.8875    0.7393 H   0  0  0  0  0  0  0  0  0  0  0  0
   -3.7501    0.8584    1.0253 H   0  0  0  0  0  0  0  0  0  0  0  0
   -4.2843    3.2701    1.1682 H   0  0  0  0  0  0  0  0  0  0  0  0
   -3.8991    3.7797   -0.4609 H   0  0  0  0  0  0  0  0  0  0  0  0
   -3.0155    4.4628    0.8881 H   0  0  0  0  0  0  0  0  0  0  0  0
   -0.8624    3.7259   -0.2833 H   0  0  0  0  0  0  0  0  0  0  0  0
    0.8159   -3.7325    0.1754 H   0  0  0  0  0  0  0  0  0  0  0  0
  1  2  1  0
  2  3  2  0
  3  4  1  0
  4  5  2  0
  5  6  1  0
  6  7  2  0
  7  8  1  0
  8  9  2  0
  9 10  1  0
  9 11  1  0
 11 12  2  0
  5 13  1  0
 13 14  2  0
 14  2  1  0
 12  6  1  0
  1 15  1  0
  1 16  1  0
  1 17  1  0
  3 18  1  0
  4 19  1  0
  7 20  1  0
  8 21  1  0
 10 22  1  0
 10 23  1  0
 10 24  1  0
 11 25  1  0
 14 26  1  0
M  END
$$$$

     RDKit          3D

 26 27  0  0  0  0  0  0  0  0999 V2000
    2.6217   -4.2421   -0.1532 C   0  0  0  0  0  0  0  0  0  0  0  0
    1.8863   -2.9481   -0.0773 C   0  0  0  0  0  0  0  0  0  0  0  0
    2.4951   -1.7476    0.2986 C   0  0  0  0  0  0  0  0  0  0  0  0
    1.7561   -0.5856    0.3489 C   0  0  0  0  0  0  0  0  0  0  0  0
    0.4133   -0.6157    0.0102 C   0  0  0  0  0  0  0  0  0  0  0  0
   -0.4083    0.6189    0.0387 C   0  0  0  0  0  0  0  0  0  0  0  0
   -1.7196    0.6071   -0.4106 C   0  0  0  0  0  0  0  0  0  0  0  0
   -2.4566    1.7685   -0.3799 C   0  0  0  0  0  0  0  0  0  0  0  0
   -1.8848    2.9496    0.1043 C   0  0  0  0  0  0  0  0  0  0  0  0
   -2.6371    4.2344    0.1421 C   0  0  0  0  0  0  0  0  0  0  0  0
   -0.5608    2.8508    0.5327 C   0  0  0  0  0  0  0  0  0  0  0  0
    0.1646    1.7340    0.5042 N   0  0  0  0  0  0  0  0  0  0  0  0
   -0.1933   -1.7513   -0.3583 N   0  0  0  0  0  0  0  0  0  0  0  0
    0.5299   -2.8675   -0.3964 C   0  0  0  0  0  0  0  0  0  0  0  0
    2.8308   -4.5040   -1.1851 H   0  0  0  0  0  0  0  0  0  0  0  0
    3.5726   -4.1915    0.3709 H   0  0  0  0  0  0  0  0  0  0  0  0
    2.0363   -5.0524    0.2740 H   0  0  0  0  0  0  0  0  0  0  0  0
    3.5473   -1.7383    0.5463 H   0  0  0  0  0  0  0  0  0  0  0  0
    2.2058    0.3520    0.6452 H   0  0  0  0  0  0  0  0  0  0  0  0
   -2.1413   -0.3150   -0.7835 H   0  0  0  0  0  0  0  0  0  0  0  0
   -3.4801    1.7804   -0.7312 H   0  0  0  0  0  0  0  0  0  0  0  0
   -2.1723    4.9498    0.8148 H   0  0  0  0  0  0  0  0  0  0  0  0
   -3.6627    4.0744    0.4642 H   0  0  0  0  0  0  0  0  0  0  0  0
   -2.6863    4.6780   -0.8449 H   0  0  0  0  0  0  0  0  0  0  0  0
   -0.0545    3.7262    0.9248 H   0  0  0  0  0  0  0  0  0  0  0  0
   -0.0019   -3.7651   -0.6998 H   0  0  0  0  0  0  0  0  0  0  0  0
  1  2  1  0
  2  3  2  0
  3  4  1  0
  4  5  2  0
  5  6  1  0
  6  7  2  0
  7  8  1  0
  8  9  2  0
  9 10  1  0
  9 11  1  0
 11 12  2  0
  5 13  1  0
 13 14  2  0
 14  2  1  0
 12  6  1  0
  1 15  1  0
  1 16  1  0
  1 17  1  0
  3 18  1  0
  4 19  1  0
  7 20  1  0
  8 21  1  0
 10 22  1  0
 10 23  1  0
 10 24  1  0
 11 25  1  0
 14 26  1  0
M  END
$$$$

     RDKit          3D

 26 27  0  0  0  0  0  0  0  0999 V2000
   -4.5176    1.9615    0.7834 C   0  0  0  0  0  0  0  0  0  0  0  0
   -3.1823    1.3320    0.5858 C   0  0  0  0  0  0  0  0  0  0  0  0
   -2.8213    0.1178    1.1754 C   0  0  0  0  0  0  0  0  0  0  0  0
   -1.5700   -0.4122    0.9520 C   0  0  0  0  0  0  0  0  0  0  0  0
   -0.6773    0.2683    0.1392 C   0  0  0  0  0  0  0  0  0  0  0  0
    0.6772   -0.2714   -0.1269 C   0  0  0  0  0  0  0  0  0  0  0  0
    1.5525    0.3898   -0.9741 C   0  0  0  0  0  0  0  0  0  0  0  0
    2.8038   -0.1394   -1.1974 C   0  0  0  0  0  0  0  0  0  0  0  0
    3.1859   -1.3314   -0.5701 C   0  0  0  0  0  0  0  0  0  0  0  0
    4.5221   -1.9550   -0.7867 C   0  0  0  0  0  0  0  0  0  0  0  0
    2.2278   -1.9143    0.2598 C   0  0  0  0  0  0  0  0  0  0  0  0
    1.0151   -1.4156    0.4805 N   0  0  0  0  0  0  0  0  0  0  0  0
   -0.9980    1.4337   -0.4375 N   0  0  0  0  0  0  0  0  0  0  0  0
   -2.2088    1.9333   -0.2153 C   0  0  0  0  0  0  0  0  0  0  0  0
   -4.4191    2.9522    1.2201 H   0  0  0  0  0  0  0  0  0  0  0  0
   -5.1480    1.3641    1.4377 H   0  0  0  0  0  0  0  0  0  0  0  0
   -5.0316    2.0788   -0.1654 H   0  0  0  0  0  0  0  0  0  0  0  0
   -3.5272   -0.3980    1.8105 H   0  0  0  0  0  0  0  0  0  0  0  0
   -1.2716   -1.3506    1.4007 H   0  0  0  0  0  0  0  0  0  0  0  0
    1.2403    1.3111   -1.4472 H   0  0  0  0  0  0  0  0  0  0  0  0
    3.5028    0.3611   -1.8534 H   0  0  0  0  0  0  0  0  0  0  0  0
    5.2680   -1.2040   -1.0371 H   0  0  0  0  0  0  0  0  0  0  0  0
    4.4885   -2.6589   -1.6083 H   0  0  0  0  0  0  0  0  0  0  0  0
    4.8590   -2.4918    0.0985 H   0  0  0  0  0  0  0  0  0  0  0  0
    2.4567   -2.8408    0.7786 H   0  0  0  0  0  0  0  0  0  0  0  0
   -2.4265    2.8794   -0.7029 H   0  0  0  0  0  0  0  0  0  0  0  0
  1  2  1  0
  2  3  2  0
  3  4  1  0
  4  5  2  0
  5  6  1  0
  6  7  2  0
  7  8  1  0
  8  9  2  0
  9 10  1  0
  9 11  1  0
 11 12  2  0
  5 13  1  0
 13 14  2  0
 14  2  1  0
 12  6  1  0
  1 15  1  0
  1 16  1  0
  1 17  1  0
  3 18  1  0
  4 19  1  0
  7 20  1  0
  8 21  1  0
 10 22  1  0
 10 23  1  0
 10 24  1  0
 11 25  1  0
 14 26  1  0
M  END
$$$$

     RDKit          3D

 26 27  0  0  0  0  0  0  0  0999 V2000
    0.7431    2.9810   -3.9338 C   0  0  0  0  0  0  0  0  0  0  0  0
    0.4771    2.1126   -2.7519 C   0  0  0  0  0  0  0  0  0  0  0  0
   -0.7493    2.1062   -2.0807 C   0  0  0  0  0  0  0  0  0  0  0  0
   -0.9425    1.2737   -1.0021 C   0  0  0  0  0  0  0  0  0  0  0  0
    0.0865    0.4432   -0.5885 C   0  0  0  0  0  0  0  0  0  0  0  0
   -0.0889   -0.4599    0.5738 C   0  0  0  0  0  0  0  0  0  0  0  0
    0.9444   -1.2770    1.0062 C   0  0  0  0  0  0  0  0  0  0  0  0
    0.7477   -2.0955    2.0941 C   0  0  0  0  0  0  0  0  0  0  0  0
   -0.4863   -2.1011    2.7560 C   0  0  0  0  0  0  0  0  0  0  0  0
   -0.7406   -2.9671    3.9413 C   0  0  0  0  0  0  0  0  0  0  0  0
   -1.4583   -1.2474    2.2350 C   0  0  0  0  0  0  0  0  0  0  0  0
   -1.2798   -0.4461    1.1845 N   0  0  0  0  0  0  0  0  0  0  0  0
    1.2677    0.4256   -1.2156 N   0  0  0  0  0  0  0  0  0  0  0  0
    1.4444    1.2358   -2.2549 C   0  0  0  0  0  0  0  0  0  0  0  0
   -0.0082    3.7608   -4.0283 H   0  0  0  0  0  0  0  0  0  0  0  0
    1.7207    3.4536   -3.8648 H   0  0  0  0  0  0  0  0  0  0  0  0
    0.7258    2.3998   -4.8483 H   0  0  0  0  0  0  0  0  0  0  0  0
   -1.5441    2.7585   -2.4121 H   0  0  0  0  0  0  0  0  0  0  0  0
   -1.8833    1.2539   -0.4691 H   0  0  0  0  0  0  0  0  0  0  0  0
    1.8923   -1.2599    0.4837 H   0  0  0  0  0  0  0  0  0  0  0  0
    1.5414   -2.7400    2.4508 H   0  0  0  0  0  0  0  0  0  0  0  0
   -0.0137   -2.7753    4.7228 H   0  0  0  0  0  0  0  0  0  0  0  0
   -0.6439   -4.0147    3.6777 H   0  0  0  0  0  0  0  0  0  0  0  0
   -1.7351   -2.8065    4.3549 H   0  0  0  0  0  0  0  0  0  0  0  0
   -2.4388   -1.2045    2.6943 H   0  0  0  0  0  0  0  0  0  0  0  0
    2.4216    1.1903   -2.7251 H   0  0  0  0  0  0  0  0  0  0  0  0
  1  2  1  0
  2  3  2  0
  3  4  1  0
  4  5  2  0
  5  6  1  0
  6  7  2  0
  7  8  1  0
  8  9  2  0
  9 10  1  0
  9 11  1  0
 11 12  2  0
  5 13  1  0
 13 14  2  0
 14  2  1  0
 12  6  1  0
  1 15  1  0
  1 16  1  0
  1 17  1  0
  3 18  1  0
  4 19  1  0
  7 20  1  0
  8 21  1  0
 10 22  1  0
 10 23  1  0
 10 24  1  0
 11 25  1  0
 14 26  1  0
M  END
$$$$

     RDKit          3D

 26 27  0  0  0  0  0  0  0  0999 V2000
    1.6955   -4.5641   -1.0872 C   0  0  0  0  0  0  0  0  0  0  0  0
    1.2114   -3.2042   -0.7167 C   0  0  0  0  0  0  0  0  0  0  0  0
    1.8275   -2.4373    0.2783 C   0  0  0  0  0  0  0  0  0  0  0  0
    1.3586   -1.1754    0.5649 C   0  0  0  0  0  0  0  0  0  0  0  0
    0.2777   -0.6730   -0.1436 C   0  0  0  0  0  0  0  0  0  0  0  0
   -0.2597    0.6797    0.1353 C   0  0  0  0  0  0  0  0  0  0  0  0
   -1.3192    1.1906   -0.5981 C   0  0  0  0  0  0  0  0  0  0  0  0
   -1.8065    2.4437   -0.2997 C   0  0  0  0  0  0  0  0  0  0  0  0
   -1.2336    3.1932    0.7326 C   0  0  0  0  0  0  0  0  0  0  0  0
   -1.7115    4.5577    1.0953 C   0  0  0  0  0  0  0  0  0  0  0  0
   -0.1659    2.5889    1.4006 C   0  0  0  0  0  0  0  0  0  0  0  0
    0.3125    1.3800    1.1224 N   0  0  0  0  0  0  0  0  0  0  0  0
   -0.3292   -1.3841   -1.1008 N   0  0  0  0  0  0  0  0  0  0  0  0
    0.1283   -2.6056   -1.3614 C   0  0  0  0  0  0  0  0  0  0  0  0
    2.4783   -4.4978   -1.8339 H   0  0  0  0  0  0  0  0  0  0  0  0
    0.8939   -5.1747   -1.4948 H   0  0  0  0  0  0  0  0  0  0  0  0
    2.1179   -5.0798   -0.2298 H   0  0  0  0  0  0  0  0  0  0  0  0
    2.6691   -2.8477    0.8197 H   0  0  0  0  0  0  0  0  0  0  0  0
    1.8185   -0.5685    1.3343 H   0  0  0  0  0  0  0  0  0  0  0  0
   -1.7492    0.6007   -1.3968 H   0  0  0  0  0  0  0  0  0  0  0  0
   -2.6349    2.8554   -0.8587 H   0  0  0  0  0  0  0  0  0  0  0  0
   -2.7227    4.7316    0.7356 H   0  0  0  0  0  0  0  0  0  0  0  0
   -1.0787    5.3166    0.6537 H   0  0  0  0  0  0  0  0  0  0  0  0
   -1.7005    4.7043    2.1732 H   0  0  0  0  0  0  0  0  0  0  0  0
    0.3288    3.1162    2.2110 H   0  0  0  0  0  0  0  0  0  0  0  0
   -0.4064   -3.1466   -2.1353 H   0  0  0  0  0  0  0  0  0  0  0  0
  1  2  1  0
  2  3  2  0
  3  4  1  0
  4  5  2  0
  5  6  1  0
  6  7  2  0
  7  8  1  0
  8  9  2  0
  9 10  1  0
  9 11  1  0
 11 12  2  0
  5 13  1  0
 13 14  2  0
 14  2  1  0
 12  6  1  0
  1 15  1  0
  1 16  1  0
  1 17  1  0
  3 18  1  0
  4 19  1  0
  7 20  1  0
  8 21  1  0
 10 22  1  0
 10 23  1  0
 10 24  1  0
 11 25  1  0
 14 26  1  0
M  END
$$$$

     RDKit          3D

 26 27  0  0  0  0  0  0  0  0999 V2000
   -3.9226   -1.7504    2.5340 C   0  0  0  0  0  0  0  0  0  0  0  0
   -2.7190   -1.2733    1.7973 C   0  0  0  0  0  0  0  0  0  0  0  0
   -1.4815   -1.9181    1.8676 C   0  0  0  0  0  0  0  0  0  0  0  0
   -0.4039   -1.4240    1.1660 C   0  0  0  0  0  0  0  0  0  0  0  0
   -0.5620   -0.2887    0.3886 C   0  0  0  0  0  0  0  0  0  0  0  0
    0.5719    0.2717   -0.3854 C   0  0  0  0  0  0  0  0  0  0  0  0
    0.4016    1.3934   -1.1818 C   0  0  0  0  0  0  0  0  0  0  0  0
    1.4771    1.8961   -1.8785 C   0  0  0  0  0  0  0  0  0  0  0  0
    2.7281    1.2755   -1.7828 C   0  0  0  0  0  0  0  0  0  0  0  0
    3.9204    1.7726   -2.5264 C   0  0  0  0  0  0  0  0  0  0  0  0
    2.7860    0.1478   -0.9639 C   0  0  0  0  0  0  0  0  0  0  0  0
    1.7531   -0.3469   -0.2836 N   0  0  0  0  0  0  0  0  0  0  0  0
   -1.7371    0.3493    0.3034 N   0  0  0  0  0  0  0  0  0  0  0  0
   -2.7686   -0.1382    0.9858 C   0  0  0  0  0  0  0  0  0  0  0  0
   -4.2885   -0.9884    3.2169 H   0  0  0  0  0  0  0  0  0  0  0  0
   -4.7314   -1.9779    1.8450 H   0  0  0  0  0  0  0  0  0  0  0  0
   -3.7068   -2.6469    3.1109 H   0  0  0  0  0  0  0  0  0  0  0  0
   -1.3742   -2.8045    2.4742 H   0  0  0  0  0  0  0  0  0  0  0  0
    0.5624   -1.9100    1.2133 H   0  0  0  0  0  0  0  0  0  0  0  0
   -0.5745    1.8545   -1.2523 H   0  0  0  0  0  0  0  0  0  0  0  0
    1.3673    2.7726   -2.5039 H   0  0  0  0  0  0  0  0  0  0  0  0
    4.8465    1.4535   -2.0531 H   0  0  0  0  0  0  0  0  0  0  0  0
    3.9178    2.8569   -2.5869 H   0  0  0  0  0  0  0  0  0  0  0  0
    3.9166    1.4007   -3.5444 H   0  0  0  0  0  0  0  0  0  0  0  0
    3.7220   -0.3871   -0.8471 H   0  0  0  0  0  0  0  0  0  0  0  0
   -3.7009    0.4098    0.8870 H   0  0  0  0  0  0  0  0  0  0  0  0
  1  2  1  0
  2  3  2  0
  3  4  1  0
  4  5  2  0
  5  6  1  0
  6  7  2  0
  7  8  1  0
  8  9  2  0
  9 10  1  0
  9 11  1  0
 11 12  2  0
  5 13  1  0
 13 14  2  0
 14  2  1  0
 12  6  1  0
  1 15  1  0
  1 16  1  0
  1 17  1  0
  3 18  1  0
  4 19  1  0
  7 20  1  0
  8 21  1  0
 10 22  1  0
 10 23  1  0
 10 24  1  0
 11 25  1  0
 14 26  1  0
M  END
$$$$

     RDKit          3D

 26 27  0  0  0  0  0  0  0  0999 V2000
    1.3565    4.3855    1.9521 C   0  0  0  0  0  0  0  0  0  0  0  0
    0.9076    3.1014    1.3455 C   0  0  0  0  0  0  0  0  0  0  0  0
    0.1228    3.0454    0.1903 C   0  0  0  0  0  0  0  0  0  0  0  0
   -0.2442    1.8290   -0.3390 C   0  0  0  0  0  0  0  0  0  0  0  0
    0.1749    0.6635    0.2817 C   0  0  0  0  0  0  0  0  0  0  0  0
   -0.1907   -0.6646   -0.2675 C   0  0  0  0  0  0  0  0  0  0  0  0
    0.2444   -1.8321    0.3394 C   0  0  0  0  0  0  0  0  0  0  0  0
   -0.1223   -3.0487   -0.1917 C   0  0  0  0  0  0  0  0  0  0  0  0
   -0.9210   -3.1003   -1.3381 C   0  0  0  0  0  0  0  0  0  0  0  0
   -1.3390   -4.3844   -1.9666 C   0  0  0  0  0  0  0  0  0  0  0  0
   -1.2969   -1.8672   -1.8742 C   0  0  0  0  0  0  0  0  0  0  0  0
   -0.9536   -0.6861   -1.3683 N   0  0  0  0  0  0  0  0  0  0  0  0
    0.9229    0.6875    1.3933 N   0  0  0  0  0  0  0  0  0  0  0  0
    1.2657    1.8698    1.8959 C   0  0  0  0  0  0  0  0  0  0  0  0
    1.2591    4.3667    3.0338 H   0  0  0  0  0  0  0  0  0  0  0  0
    0.7819    5.2264    1.5724 H   0  0  0  0  0  0  0  0  0  0  0  0
    2.4004    4.5735    1.7228 H   0  0  0  0  0  0  0  0  0  0  0  0
   -0.1982    3.9643   -0.2791 H   0  0  0  0  0  0  0  0  0  0  0  0
   -0.8523    1.7681   -1.2314 H   0  0  0  0  0  0  0  0  0  0  0  0
    0.8634   -1.7734    1.2239 H   0  0  0  0  0  0  0  0  0  0  0  0
    0.2029   -3.9698    0.2724 H   0  0  0  0  0  0  0  0  0  0  0  0
   -0.6864   -4.6374   -2.7931 H   0  0  0  0  0  0  0  0  0  0  0  0
   -2.3523   -4.3205   -2.3564 H   0  0  0  0  0  0  0  0  0  0  0  0
   -1.2938   -5.2051   -1.2548 H   0  0  0  0  0  0  0  0  0  0  0  0
   -1.9179   -1.8366   -2.7652 H   0  0  0  0  0  0  0  0  0  0  0  0
    1.8658    1.8452    2.8019 H   0  0  0  0  0  0  0  0  0  0  0  0
  1  2  1  0
  2  3  2  0
  3  4  1  0
  4  5  2  0
  5  6  1  0
  6  7  2  0
  7  8  1  0
  8  9  2  0
  9 10  1  0
  9 11  1  0
 11 12  2  0
  5 13  1  0
 13 14  2  0
 14  2  1  0
 12  6  1  0
  1 15  1  0
  1 16  1  0
  1 17  1  0
  3 18  1  0
  4 19  1  0
  7 20  1  0
  8 21  1  0
 10 22  1  0
 10 23  1  0
 10 24  1  0
 11 25  1  0
 14 26  1  0
M  END
$$$$

     RDKit          3D

 26 27  0  0  0  0  0  0  0  0999 V2000
    2.1836   -1.1443   -4.3371 C   0  0  0  0  0  0  0  0  0  0  0  0
    1.4827   -0.7908   -3.0702 C   0  0  0  0  0  0  0  0  0  0  0  0
    0.1069   -0.5535   -3.0075 C   0  0  0  0  0  0  0  0  0  0  0  0
   -0.4833   -0.2265   -1.8068 C   0  0  0  0  0  0  0  0  0  0  0  0
    0.2966   -0.1441   -0.6643 C   0  0  0  0  0  0  0  0  0  0  0  0
   -0.3052    0.1891    0.6489 C   0  0  0  0  0  0  0  0  0  0  0  0
    0.4786    0.2708    1.7895 C   0  0  0  0  0  0  0  0  0  0  0  0
   -0.1113    0.5671    2.9963 C   0  0  0  0  0  0  0  0  0  0  0  0
   -1.4916    0.7909    3.0671 C   0  0  0  0  0  0  0  0  0  0  0  0
   -2.1817    1.0914    4.3525 C   0  0  0  0  0  0  0  0  0  0  0  0
   -2.1839    0.6953    1.8604 C   0  0  0  0  0  0  0  0  0  0  0  0
   -1.6244    0.4023    0.6868 N   0  0  0  0  0  0  0  0  0  0  0  0
    1.6189   -0.3607   -0.6966 N   0  0  0  0  0  0  0  0  0  0  0  0
    2.1757   -0.6719   -1.8638 C   0  0  0  0  0  0  0  0  0  0  0  0
    2.8103   -0.3231   -4.6740 H   0  0  0  0  0  0  0  0  0  0  0  0
    1.4771   -1.3707   -5.1322 H   0  0  0  0  0  0  0  0  0  0  0  0
    2.8316   -2.0058   -4.1963 H   0  0  0  0  0  0  0  0  0  0  0  0
   -0.4902   -0.6291   -3.9053 H   0  0  0  0  0  0  0  0  0  0  0  0
   -1.5463   -0.0344   -1.7377 H   0  0  0  0  0  0  0  0  0  0  0  0
    1.5437    0.0959    1.7140 H   0  0  0  0  0  0  0  0  0  0  0  0
    0.4821    0.6304    3.8987 H   0  0  0  0  0  0  0  0  0  0  0  0
   -3.1698    1.5149    4.1877 H   0  0  0  0  0  0  0  0  0  0  0  0
   -2.2936    0.1913    4.9462 H   0  0  0  0  0  0  0  0  0  0  0  0
   -1.6018    1.7888    4.9495 H   0  0  0  0  0  0  0  0  0  0  0  0
   -3.2543    0.8630    1.8370 H   0  0  0  0  0  0  0  0  0  0  0  0
    3.2496   -0.8364   -1.8429 H   0  0  0  0  0  0  0  0  0  0  0  0
  1  2  1  0
  2  3  2  0
  3  4  1  0
  4  5  2  0
  5  6  1  0
  6  7  2  0
  7  8  1  0
  8  9  2  0
  9 10  1  0
  9 11  1  0
 11 12  2  0
  5 13  1  0
 13 14  2  0
 14  2  1  0
 12  6  1  0
  1 15  1  0
  1 16  1  0
  1 17  1  0
  3 18  1  0
  4 19  1  0
  7 20  1  0
  8 21  1  0
 10 22  1  0
 10 23  1  0
 10 24  1  0
 11 25  1  0
 14 26  1  0
M  END
$$$$
