
     RDKit          3D

 20 21  0  0  0  0  0  0  0  0999 V2000
   -0.0975   -3.9178   -2.5950 Br  0  0  0  0  0  0  0  0  0  0  0  0
   -0.0351   -2.0529   -2.2385 C   0  0  0  0  0  0  0  0  0  0  0  0
    0.0291   -1.1453   -3.2730 C   0  0  0  0  0  0  0  0  0  0  0  0
    0.0721    0.2043   -2.9295 C   0  0  0  0  0  0  0  0  0  0  0  0
    0.0559    0.6421   -1.6835 N   0  0  0  0  0  0  0  0  0  0  0  0
   -0.0001   -0.2609   -0.6981 C   0  0  0  0  0  0  0  0  0  0  0  0
   -0.0028    0.2536    0.7018 C   0  0  0  0  0  0  0  0  0  0  0  0
   -0.0490    1.6205    0.9190 C   0  0  0  0  0  0  0  0  0  0  0  0
   -0.0389    2.0523    2.2344 C   0  0  0  0  0  0  0  0  0  0  0  0
   -0.0978    3.9199    2.5790 Br  0  0  0  0  0  0  0  0  0  0  0  0
    0.0156    1.1499    3.2725 C   0  0  0  0  0  0  0  0  0  0  0  0
    0.0562   -0.2011    2.9352 C   0  0  0  0  0  0  0  0  0  0  0  0
    0.0423   -0.6459    1.6912 N   0  0  0  0  0  0  0  0  0  0  0  0
   -0.0542   -1.6265   -0.9205 C   0  0  0  0  0  0  0  0  0  0  0  0
    0.0457   -1.4567   -4.3107 H   0  0  0  0  0  0  0  0  0  0  0  0
    0.1252    0.9648   -3.7094 H   0  0  0  0  0  0  0  0  0  0  0  0
   -0.0910    2.3214    0.0933 H   0  0  0  0  0  0  0  0  0  0  0  0
    0.0310    1.4652    4.3086 H   0  0  0  0  0  0  0  0  0  0  0  0
    0.1000   -0.9582    3.7200 H   0  0  0  0  0  0  0  0  0  0  0  0
   -0.1066   -2.3286   -0.0968 H   0  0  0  0  0  0  0  0  0  0  0  0
  1  2  1  0
  2  3  2  0
  3  4  1  0
  4  5  2  0
  5  6  1  0
  6  7  1  0
  7  8  2  0
  8  9  1  0
  9 10  1  0
  9 11  2  0
 11 12  1  0
 12 13  2  0
  6 14  2  0
 14  2  1  0
 13  7  1  0
  3 15  1  0
  4 16  1  0
  8 17  1  0
 11 18  1  0
 12 19  1  0
 14 20  1  0
M  END
$$$$

     RDKit          3D

 20 21  0  0  0  0  0  0  0  0999 V2000
    4.2635    0.1092    1.9779 Br  0  0  0  0  0  0  0  0  0  0  0  0
    2.7063    0.7939    1.1319 C   0  0  0  0  0  0  0  0  0  0  0  0
    2.5896    2.1394    0.8654 C   0  0  0  0  0  0  0  0  0  0  0  0
    1.4172    2.5601    0.2428 C   0  0  0  0  0  0  0  0  0  0  0  0
    0.4348    1.7449   -0.0981 N   0  0  0  0  0  0  0  0  0  0  0  0
    0.5701    0.4430    0.1826 C   0  0  0  0  0  0  0  0  0  0  0  0
   -0.5604   -0.4554   -0.1900 C   0  0  0  0  0  0  0  0  0  0  0  0
   -1.6670    0.0779   -0.8307 C   0  0  0  0  0  0  0  0  0  0  0  0
   -2.6948   -0.7924   -1.1522 C   0  0  0  0  0  0  0  0  0  0  0  0
   -4.2284   -0.1074   -2.0414 Br  0  0  0  0  0  0  0  0  0  0  0  0
   -2.6059   -2.1309   -0.8451 C   0  0  0  0  0  0  0  0  0  0  0  0
   -1.4454   -2.5556   -0.2017 C   0  0  0  0  0  0  0  0  0  0  0  0
   -0.4474   -1.7504    0.1203 N   0  0  0  0  0  0  0  0  0  0  0  0
    1.6939   -0.0882    0.7930 C   0  0  0  0  0  0  0  0  0  0  0  0
    3.3671    2.8459    1.1276 H   0  0  0  0  0  0  0  0  0  0  0  0
    1.2720    3.6166    0.0081 H   0  0  0  0  0  0  0  0  0  0  0  0
   -1.7238    1.1338   -1.0665 H   0  0  0  0  0  0  0  0  0  0  0  0
   -3.3984   -2.8288   -1.0859 H   0  0  0  0  0  0  0  0  0  0  0  0
   -1.3210   -3.6064    0.0617 H   0  0  0  0  0  0  0  0  0  0  0  0
    1.7780   -1.1492    1.0002 H   0  0  0  0  0  0  0  0  0  0  0  0
  1  2  1  0
  2  3  2  0
  3  4  1  0
  4  5  2  0
  5  6  1  0
  6  7  1  0
  7  8  2  0
  8  9  1  0
  9 10  1  0
  9 11  2  0
 11 12  1  0
 12 13  2  0
  6 14  2  0
 14  2  1  0
 13  7  1  0
  3 15  1  0
  4 16  1  0
  8 17  1  0
 11 18  1  0
 12 19  1  0
 14 20  1  0
M  END
$$$$

     RDKit          3D

 20 21  0  0  0  0  0  0  0  0999 V2000
   -3.8323   -2.6382   -0.6691 Br  0  0  0  0  0  0  0  0  0  0  0  0
   -2.3071   -1.9612    0.2416 C   0  0  0  0  0  0  0  0  0  0  0  0
   -1.9716   -2.4307    1.4934 C   0  0  0  0  0  0  0  0  0  0  0  0
   -0.8413   -1.8803    2.0948 C   0  0  0  0  0  0  0  0  0  0  0  0
   -0.0882   -0.9542    1.5296 N   0  0  0  0  0  0  0  0  0  0  0  0
   -0.4348   -0.5195    0.3116 C   0  0  0  0  0  0  0  0  0  0  0  0
    0.4283    0.5226   -0.3132 C   0  0  0  0  0  0  0  0  0  0  0  0
    1.5073    1.0204    0.3969 C   0  0  0  0  0  0  0  0  0  0  0  0
    2.2838    1.9826   -0.2272 C   0  0  0  0  0  0  0  0  0  0  0  0
    3.7789    2.6995    0.7013 Br  0  0  0  0  0  0  0  0  0  0  0  0
    1.9880    2.4124   -1.5004 C   0  0  0  0  0  0  0  0  0  0  0  0
    0.8766    1.8435   -2.1167 C   0  0  0  0  0  0  0  0  0  0  0  0
    0.1128    0.9271   -1.5492 N   0  0  0  0  0  0  0  0  0  0  0  0
   -1.5370   -0.9918   -0.3811 C   0  0  0  0  0  0  0  0  0  0  0  0
   -2.5551   -3.1888    2.0006 H   0  0  0  0  0  0  0  0  0  0  0  0
   -0.5357   -2.2168    3.0871 H   0  0  0  0  0  0  0  0  0  0  0  0
    1.7338    0.6723    1.3982 H   0  0  0  0  0  0  0  0  0  0  0  0
    2.5863    3.1594   -2.0081 H   0  0  0  0  0  0  0  0  0  0  0  0
    0.5957    2.1533   -3.1255 H   0  0  0  0  0  0  0  0  0  0  0  0
   -1.7886   -0.6117   -1.3645 H   0  0  0  0  0  0  0  0  0  0  0  0
  1  2  1  0
  2  3  2  0
  3  4  1  0
  4  5  2  0
  5  6  1  0
  6  7  1  0
  7  8  2  0
  8  9  1  0
  9 10  1  0
  9 11  2  0
 11 12  1  0
 12 13  2  0
  6 14  2  0
 14  2  1  0
 13  7  1  0
  3 15  1  0
  4 16  1  0
  8 17  1  0
 11 18  1  0
 12 19  1  0
 14 20  1  0
M  END
$$$$

     RDKit          3D

 20 21  0  0  0  0  0  0  0  0999 V2000
   -4.1055   -2.0072   -1.0945 Br  0  0  0  0  0  0  0  0  0  0  0  0
   -2.2228   -1.7472   -1.1076 C   0  0  0  0  0  0  0  0  0  0  0  0
   -1.4102   -2.5642   -1.8615 C   0  0  0  0  0  0  0  0  0  0  0  0
   -0.0425   -2.3084   -1.8179 C   0  0  0  0  0  0  0  0  0  0  0  0
    0.4981   -1.3388   -1.1024 N   0  0  0  0  0  0  0  0  0  0  0  0
   -0.3149   -0.5542   -0.3861 C   0  0  0  0  0  0  0  0  0  0  0  0
    0.3147    0.5436    0.4022 C   0  0  0  0  0  0  0  0  0  0  0  0
    1.6911    0.7025    0.3715 C   0  0  0  0  0  0  0  0  0  0  0  0
    2.2253    1.7403    1.1161 C   0  0  0  0  0  0  0  0  0  0  0  0
    4.1094    1.9942    1.1078 Br  0  0  0  0  0  0  0  0  0  0  0  0
    1.4098    2.5753    1.8469 C   0  0  0  0  0  0  0  0  0  0  0  0
    0.0406    2.3208    1.8023 C   0  0  0  0  0  0  0  0  0  0  0  0
   -0.5001    1.3375    1.1052 N   0  0  0  0  0  0  0  0  0  0  0  0
   -1.6901   -0.7166   -0.3517 C   0  0  0  0  0  0  0  0  0  0  0  0
   -1.8057   -3.3750   -2.4613 H   0  0  0  0  0  0  0  0  0  0  0  0
    0.6468   -2.9252   -2.3975 H   0  0  0  0  0  0  0  0  0  0  0  0
    2.3236    0.0401   -0.2067 H   0  0  0  0  0  0  0  0  0  0  0  0
    1.8063    3.3925    2.4355 H   0  0  0  0  0  0  0  0  0  0  0  0
   -0.6502    2.9512    2.3631 H   0  0  0  0  0  0  0  0  0  0  0  0
   -2.3235   -0.0613    0.2363 H   0  0  0  0  0  0  0  0  0  0  0  0
  1  2  1  0
  2  3  2  0
  3  4  1  0
  4  5  2  0
  5  6  1  0
  6  7  1  0
  7  8  2  0
  8  9  1  0
  9 10  1  0
  9 11  2  0
 11 12  1  0
 12 13  2  0
  6 14  2  0
 14  2  1  0
 13  7  1  0
  3 15  1  0
  4 16  1  0
  8 17  1  0
 11 18  1  0
 12 19  1  0
 14 20  1  0
M  END
$$$$

     RDKit          3D

 20 21  0  0  0  0  0  0  0  0999 V2000
    2.2695    2.7646    3.0423 Br  0  0  0  0  0  0  0  0  0  0  0  0
    0.8634    2.2154    1.8883 C   0  0  0  0  0  0  0  0  0  0  0  0
   -0.2564    2.9996    1.7241 C   0  0  0  0  0  0  0  0  0  0  0  0
   -1.2412    2.5214    0.8632 C   0  0  0  0  0  0  0  0  0  0  0  0
   -1.1488    1.3807    0.2023 N   0  0  0  0  0  0  0  0  0  0  0  0
   -0.0470    0.6413    0.3768 C   0  0  0  0  0  0  0  0  0  0  0  0
    0.0460   -0.6404   -0.3782 C   0  0  0  0  0  0  0  0  0  0  0  0
   -1.0015   -1.0217   -1.2006 C   0  0  0  0  0  0  0  0  0  0  0  0
   -0.8697   -2.2223   -1.8786 C   0  0  0  0  0  0  0  0  0  0  0  0
   -2.2847   -2.7921   -3.0135 Br  0  0  0  0  0  0  0  0  0  0  0  0
    0.2638   -2.9910   -1.7358 C   0  0  0  0  0  0  0  0  0  0  0  0
    1.2539   -2.5059   -0.8834 C   0  0  0  0  0  0  0  0  0  0  0  0
    1.1584   -1.3671   -0.2209 N   0  0  0  0  0  0  0  0  0  0  0  0
    0.9907    1.0115    1.2160 C   0  0  0  0  0  0  0  0  0  0  0  0
   -0.3765    3.9440    2.2394 H   0  0  0  0  0  0  0  0  0  0  0  0
   -2.1524    3.1008    0.7016 H   0  0  0  0  0  0  0  0  0  0  0  0
   -1.8898   -0.4098   -1.3041 H   0  0  0  0  0  0  0  0  0  0  0  0
    0.3851   -3.9349   -2.2524 H   0  0  0  0  0  0  0  0  0  0  0  0
    2.1730   -3.0752   -0.7319 H   0  0  0  0  0  0  0  0  0  0  0  0
    1.8642    0.3812    1.3455 H   0  0  0  0  0  0  0  0  0  0  0  0
  1  2  1  0
  2  3  2  0
  3  4  1  0
  4  5  2  0
  5  6  1  0
  6  7  1  0
  7  8  2  0
  8  9  1  0
  9 10  1  0
  9 11  2  0
 11 12  1  0
 12 13  2  0
  6 14  2  0
 14  2  1  0
 13  7  1  0
  3 15  1  0
  4 16  1  0
  8 17  1  0
 11 18  1  0
 12 19  1  0
 14 20  1  0
M  END
$$$$

     RDKit          3D

 20 21  0  0  0  0  0  0  0  0999 V2000
   -2.9516    1.4625   -3.3489 Br  0  0  0  0  0  0  0  0  0  0  0  0
   -2.4082    0.5919   -1.7488 C   0  0  0  0  0  0  0  0  0  0  0  0
   -3.3252   -0.0844   -0.9757 C   0  0  0  0  0  0  0  0  0  0  0  0
   -2.8513   -0.6932    0.1839 C   0  0  0  0  0  0  0  0  0  0  0  0
   -1.5873   -0.6571    0.5628 N   0  0  0  0  0  0  0  0  0  0  0  0
   -0.7167    0.0025   -0.2082 C   0  0  0  0  0  0  0  0  0  0  0  0
    0.7092    0.0213    0.2262 C   0  0  0  0  0  0  0  0  0  0  0  0
    1.0757   -0.6534    1.3787 C   0  0  0  0  0  0  0  0  0  0  0  0
    2.4137   -0.6132    1.7350 C   0  0  0  0  0  0  0  0  0  0  0  0
    2.9691   -1.5249    3.3091 Br  0  0  0  0  0  0  0  0  0  0  0  0
    3.3278    0.0721    0.9661 C   0  0  0  0  0  0  0  0  0  0  0  0
    2.8437    0.7179   -0.1691 C   0  0  0  0  0  0  0  0  0  0  0  0
    1.5757    0.6981   -0.5388 N   0  0  0  0  0  0  0  0  0  0  0  0
   -1.0762    0.6525   -1.3770 C   0  0  0  0  0  0  0  0  0  0  0  0
   -4.3716   -0.1400   -1.2459 H   0  0  0  0  0  0  0  0  0  0  0  0
   -3.5372   -1.2377    0.8348 H   0  0  0  0  0  0  0  0  0  0  0  0
    0.3451   -1.1902    1.9740 H   0  0  0  0  0  0  0  0  0  0  0  0
    4.3794    0.1145    1.2234 H   0  0  0  0  0  0  0  0  0  0  0  0
    3.5294    1.2791   -0.8082 H   0  0  0  0  0  0  0  0  0  0  0  0
   -0.3433    1.1816   -1.9734 H   0  0  0  0  0  0  0  0  0  0  0  0
  1  2  1  0
  2  3  2  0
  3  4  1  0
  4  5  2  0
  5  6  1  0
  6  7  1  0
  7  8  2  0
  8  9  1  0
  9 10  1  0
  9 11  2  0
 11 12  1  0
 12 13  2  0
  6 14  2  0
 14  2  1  0
 13  7  1  0
  3 15  1  0
  4 16  1  0
  8 17  1  0
 11 18  1  0
 12 19  1  0
 14 20  1  0
M  END
$$$$

     RDKit          3D

 20 21  0  0  0  0  0  0  0  0999 V2000
   -0.2719    2.2415    4.1265 Br  0  0  0  0  0  0  0  0  0  0  0  0
   -0.7496    1.7770    2.3482 C   0  0  0  0  0  0  0  0  0  0  0  0
   -1.8197    2.3879    1.7314 C   0  0  0  0  0  0  0  0  0  0  0  0
   -2.1079    1.9938    0.4268 C   0  0  0  0  0  0  0  0  0  0  0  0
   -1.4143    1.0843   -0.2336 N   0  0  0  0  0  0  0  0  0  0  0  0
   -0.3764    0.5103    0.3890 C   0  0  0  0  0  0  0  0  0  0  0  0
    0.3949   -0.5094   -0.3771 C   0  0  0  0  0  0  0  0  0  0  0  0
   -0.0122   -0.8329   -1.6606 C   0  0  0  0  0  0  0  0  0  0  0  0
    0.7240   -1.7921   -2.3344 C   0  0  0  0  0  0  0  0  0  0  0  0
    0.1942   -2.2817   -4.0941 Br  0  0  0  0  0  0  0  0  0  0  0  0
    1.8203   -2.3816   -1.7456 C   0  0  0  0  0  0  0  0  0  0  0  0
    2.1431   -1.9702   -0.4541 C   0  0  0  0  0  0  0  0  0  0  0  0
    1.4540   -1.0667    0.2202 N   0  0  0  0  0  0  0  0  0  0  0  0
    0.0013    0.8206    1.6842 C   0  0  0  0  0  0  0  0  0  0  0  0
   -2.4179    3.1400    2.2319 H   0  0  0  0  0  0  0  0  0  0  0  0
   -2.9475    2.4446   -0.1052 H   0  0  0  0  0  0  0  0  0  0  0  0
   -0.8722   -0.3561   -2.1163 H   0  0  0  0  0  0  0  0  0  0  0  0
    2.4098   -3.1346   -2.2545 H   0  0  0  0  0  0  0  0  0  0  0  0
    3.0067   -2.4027    0.0558 H   0  0  0  0  0  0  0  0  0  0  0  0
    0.8414    0.3282    2.1617 H   0  0  0  0  0  0  0  0  0  0  0  0
  1  2  1  0
  2  3  2  0
  3  4  1  0
  4  5  2  0
  5  6  1  0
  6  7  1  0
  7  8  2  0
  8  9  1  0
  9 10  1  0
  9 11  2  0
 11 12  1  0
 12 13  2  0
  6 14  2  0
 14  2  1  0
 13  7  1  0
  3 15  1  0
  4 16  1  0
  8 17  1  0
 11 18  1  0
 12 19  1  0
 14 20  1  0
M  END
$$$$

     RDKit          3D

 20 21  0  0  0  0  0  0  0  0999 V2000
   -3.2138    3.0375   -1.5972 Br  0  0  0  0  0  0  0  0  0  0  0  0
   -1.6212    2.0000   -1.6108 C   0  0  0  0  0  0  0  0  0  0  0  0
   -0.7486    2.0737   -2.6742 C   0  0  0  0  0  0  0  0  0  0  0  0
    0.3972    1.2851   -2.6096 C   0  0  0  0  0  0  0  0  0  0  0  0
    0.6843    0.4961   -1.5902 N   0  0  0  0  0  0  0  0  0  0  0  0
   -0.1801    0.4457   -0.5684 C   0  0  0  0  0  0  0  0  0  0  0  0
    0.1642   -0.4489    0.5736 C   0  0  0  0  0  0  0  0  0  0  0  0
    1.3342   -1.1876    0.5194 C   0  0  0  0  0  0  0  0  0  0  0  0
    1.6172   -2.0033    1.6016 C   0  0  0  0  0  0  0  0  0  0  0  0
    3.2137   -3.0329    1.5693 Br  0  0  0  0  0  0  0  0  0  0  0  0
    0.7639   -2.0673    2.6802 C   0  0  0  0  0  0  0  0  0  0  0  0
   -0.3846   -1.2804    2.6247 C   0  0  0  0  0  0  0  0  0  0  0  0
   -0.6840   -0.4920    1.6070 N   0  0  0  0  0  0  0  0  0  0  0  0
   -1.3554    1.1765   -0.5296 C   0  0  0  0  0  0  0  0  0  0  0  0
   -0.9402    2.7071   -3.5312 H   0  0  0  0  0  0  0  0  0  0  0  0
    1.1193    1.3055   -3.4285 H   0  0  0  0  0  0  0  0  0  0  0  0
    1.9998   -1.1277   -0.3352 H   0  0  0  0  0  0  0  0  0  0  0  0
    0.9678   -2.6978    3.5372 H   0  0  0  0  0  0  0  0  0  0  0  0
   -1.0960   -1.2959    3.4521 H   0  0  0  0  0  0  0  0  0  0  0  0
   -2.0375    1.1065    0.3100 H   0  0  0  0  0  0  0  0  0  0  0  0
  1  2  1  0
  2  3  2  0
  3  4  1  0
  4  5  2  0
  5  6  1  0
  6  7  1  0
  7  8  2  0
  8  9  1  0
  9 10  1  0
  9 11  2  0
 11 12  1  0
 12 13  2  0
  6 14  2  0
 14  2  1  0
 13  7  1  0
  3 15  1  0
  4 16  1  0
  8 17  1  0
 11 18  1  0
 12 19  1  0
 14 20  1  0
M  END
$$$$

     RDKit          3D

 20 21  0  0  0  0  0  0  0  0999 V2000
    2.0132   -1.2318   -4.0587 Br  0  0  0  0  0  0  0  0  0  0  0  0
    1.1049   -0.1074   -2.8253 C   0  0  0  0  0  0  0  0  0  0  0  0
    0.7338    1.1691   -3.1832 C   0  0  0  0  0  0  0  0  0  0  0  0
    0.0717    1.9281   -2.2209 C   0  0  0  0  0  0  0  0  0  0  0  0
   -0.2100    1.4867   -1.0083 N   0  0  0  0  0  0  0  0  0  0  0  0
    0.1638    0.2437   -0.6860 C   0  0  0  0  0  0  0  0  0  0  0  0
   -0.1586   -0.2383    0.6883 C   0  0  0  0  0  0  0  0  0  0  0  0
   -0.8602    0.5877    1.5513 C   0  0  0  0  0  0  0  0  0  0  0  0
   -1.1356    0.0947    2.8163 C   0  0  0  0  0  0  0  0  0  0  0  0
   -2.0997    1.1877    4.0363 Br  0  0  0  0  0  0  0  0  0  0  0  0
   -0.7232   -1.1657    3.1855 C   0  0  0  0  0  0  0  0  0  0  0  0
   -0.0222   -1.9053    2.2358 C   0  0  0  0  0  0  0  0  0  0  0  0
    0.2548   -1.4673    1.0196 N   0  0  0  0  0  0  0  0  0  0  0  0
    0.8249   -0.6008   -1.5619 C   0  0  0  0  0  0  0  0  0  0  0  0
    0.9414    1.5741   -4.1660 H   0  0  0  0  0  0  0  0  0  0  0  0
   -0.2433    2.9467   -2.4516 H   0  0  0  0  0  0  0  0  0  0  0  0
   -1.1707    1.5817    1.2485 H   0  0  0  0  0  0  0  0  0  0  0  0
   -0.9259   -1.5709    4.1691 H   0  0  0  0  0  0  0  0  0  0  0  0
    0.3287   -2.9088    2.4800 H   0  0  0  0  0  0  0  0  0  0  0  0
    1.1124   -1.6040   -1.2689 H   0  0  0  0  0  0  0  0  0  0  0  0
  1  2  1  0
  2  3  2  0
  3  4  1  0
  4  5  2  0
  5  6  1  0
  6  7  1  0
  7  8  2  0
  8  9  1  0
  9 10  1  0
  9 11  2  0
 11 12  1  0
 12 13  2  0
  6 14  2  0
 14  2  1  0
 13  7  1  0
  3 15  1  0
  4 16  1  0
  8 17  1  0
 11 18  1  0
 12 19  1  0
 14 20  1  0
M  END
$$$$

     RDKit          3D

 20 21  0  0  0  0  0  0  0  0999 V2000
    2.3990    2.8250   -2.8922 Br  0  0  0  0  0  0  0  0  0  0  0  0
    1.5780    2.2589   -1.2753 C   0  0  0  0  0  0  0  0  0  0  0  0
    1.6247    3.0589   -0.1551 C   0  0  0  0  0  0  0  0  0  0  0  0
    1.0008    2.5779    0.9930 C   0  0  0  0  0  0  0  0  0  0  0  0
    0.3814    1.4134    1.0540 N   0  0  0  0  0  0  0  0  0  0  0  0
    0.3477    0.6569   -0.0491 C   0  0  0  0  0  0  0  0  0  0  0  0
   -0.3541   -0.6555    0.0408 C   0  0  0  0  0  0  0  0  0  0  0  0
   -0.9487   -1.0243    1.2362 C   0  0  0  0  0  0  0  0  0  0  0  0
   -1.5802   -2.2562    1.2750 C   0  0  0  0  0  0  0  0  0  0  0  0
   -2.4046   -2.8054    2.8972 Br  0  0  0  0  0  0  0  0  0  0  0  0
   -1.6129   -3.0668    0.1627 C   0  0  0  0  0  0  0  0  0  0  0  0
   -0.9885   -2.5882   -0.9874 C   0  0  0  0  0  0  0  0  0  0  0  0
   -0.3768   -1.4192   -1.0576 N   0  0  0  0  0  0  0  0  0  0  0  0
    0.9304    1.0344   -1.2472 C   0  0  0  0  0  0  0  0  0  0  0  0
    2.1246    4.0200   -0.1559 H   0  0  0  0  0  0  0  0  0  0  0  0
    1.0078    3.1741    1.9073 H   0  0  0  0  0  0  0  0  0  0  0  0
   -0.9180   -0.3765    2.1053 H   0  0  0  0  0  0  0  0  0  0  0  0
   -2.0989   -4.0348    0.1698 H   0  0  0  0  0  0  0  0  0  0  0  0
   -0.9908   -3.1891   -1.8980 H   0  0  0  0  0  0  0  0  0  0  0  0
    0.8791    0.3966   -2.1234 H   0  0  0  0  0  0  0  0  0  0  0  0
  1  2  1  0
  2  3  2  0
  3  4  1  0
  4  5  2  0
  5  6  1  0
  6  7  1  0
  7  8  2  0
  8  9  1  0
  9 10  1  0
  9 11  2  0
 11 12  1  0
 12 13  2  0
  6 14  2  0
 14  2  1  0
 13  7  1  0
  3 15  1  0
  4 16  1  0
  8 17  1  0
 11 18  1  0
 12 19  1  0
 14 20  1  0
M  END
$$$$

     RDKit          3D

 20 21  0  0  0  0  0  0  0  0999 V2000
   -0.7618   -1.3845    4.4227 Br  0  0  0  0  0  0  0  0  0  0  0  0
   -1.1375   -1.1265    2.5787 C   0  0  0  0  0  0  0  0  0  0  0  0
   -2.3397   -1.5365    2.0477 C   0  0  0  0  0  0  0  0  0  0  0  0
   -2.5398   -1.3124    0.6880 C   0  0  0  0  0  0  0  0  0  0  0  0
   -1.6518   -0.7285   -0.0977 N   0  0  0  0  0  0  0  0  0  0  0  0
   -0.4948   -0.3330    0.4469 C   0  0  0  0  0  0  0  0  0  0  0  0
    0.4947    0.3310   -0.4493 C   0  0  0  0  0  0  0  0  0  0  0  0
    0.2197    0.4383   -1.8019 C   0  0  0  0  0  0  0  0  0  0  0  0
    1.1653    1.0722   -2.5908 C   0  0  0  0  0  0  0  0  0  0  0  0
    0.8342    1.2362   -4.4541 Br  0  0  0  0  0  0  0  0  0  0  0  0
    2.3231    1.5745   -2.0394 C   0  0  0  0  0  0  0  0  0  0  0  0
    2.4950    1.4056   -0.6675 C   0  0  0  0  0  0  0  0  0  0  0  0
    1.6158    0.7994    0.1094 N   0  0  0  0  0  0  0  0  0  0  0  0
   -0.1854   -0.5093    1.7852 C   0  0  0  0  0  0  0  0  0  0  0  0
   -3.0993   -2.0171    2.6508 H   0  0  0  0  0  0  0  0  0  0  0  0
   -3.4747   -1.6238    0.2173 H   0  0  0  0  0  0  0  0  0  0  0  0
   -0.6962    0.0398   -2.2239 H   0  0  0  0  0  0  0  0  0  0  0  0
    3.0721    2.0782   -2.6372 H   0  0  0  0  0  0  0  0  0  0  0  0
    3.3974    1.7768   -0.1782 H   0  0  0  0  0  0  0  0  0  0  0  0
    0.7635   -0.1803    2.1933 H   0  0  0  0  0  0  0  0  0  0  0  0
  1  2  1  0
  2  3  2  0
  3  4  1  0
  4  5  2  0
  5  6  1  0
  6  7  1  0
  7  8  2  0
  8  9  1  0
  9 10  1  0
  9 11  2  0
 11 12  1  0
 12 13  2  0
  6 14  2  0
 14  2  1  0
 13  7  1  0
  3 15  1  0
  4 16  1  0
  8 17  1  0
 11 18  1  0
 12 19  1  0
 14 20  1  0
M  END
$$$$

     RDKit          3D

 20 21  0  0  0  0  0  0  0  0999 V2000
    2.7708    0.5291   -3.7583 Br  0  0  0  0  0  0  0  0  0  0  0  0
    1.1959    0.0926   -2.7892 C   0  0  0  0  0  0  0  0  0  0  0  0
    0.0773   -0.3666   -3.4480 C   0  0  0  0  0  0  0  0  0  0  0  0
   -1.0374   -0.6642   -2.6683 C   0  0  0  0  0  0  0  0  0  0  0  0
   -1.0698   -0.5297   -1.3548 N   0  0  0  0  0  0  0  0  0  0  0  0
    0.0292   -0.0756   -0.7410 C   0  0  0  0  0  0  0  0  0  0  0  0
   -0.0273    0.0784    0.7405 C   0  0  0  0  0  0  0  0  0  0  0  0
   -1.1902   -0.2581    1.4140 C   0  0  0  0  0  0  0  0  0  0  0  0
   -1.1934   -0.1005    2.7901 C   0  0  0  0  0  0  0  0  0  0  0  0
   -2.7655   -0.5571    3.7570 Br  0  0  0  0  0  0  0  0  0  0  0  0
   -0.0805    0.3724    3.4477 C   0  0  0  0  0  0  0  0  0  0  0  0
    1.0316    0.6795    2.6665 C   0  0  0  0  0  0  0  0  0  0  0  0
    1.0678    0.5428    1.3522 N   0  0  0  0  0  0  0  0  0  0  0  0
    1.1965    0.2473   -1.4126 C   0  0  0  0  0  0  0  0  0  0  0  0
    0.0542   -0.4914   -4.5239 H   0  0  0  0  0  0  0  0  0  0  0  0
   -1.9502   -1.0337   -3.1399 H   0  0  0  0  0  0  0  0  0  0  0  0
   -2.0604   -0.6308    0.8872 H   0  0  0  0  0  0  0  0  0  0  0  0
   -0.0613    0.5059    4.5233 H   0  0  0  0  0  0  0  0  0  0  0  0
    1.9407    1.0558    3.1384 H   0  0  0  0  0  0  0  0  0  0  0  0
    2.0721    0.6036   -0.8809 H   0  0  0  0  0  0  0  0  0  0  0  0
  1  2  1  0
  2  3  2  0
  3  4  1  0
  4  5  2  0
  5  6  1  0
  6  7  1  0
  7  8  2  0
  8  9  1  0
  9 10  1  0
  9 11  2  0
 11 12  1  0
 12 13  2  0
  6 14  2  0
 14  2  1  0
 13  7  1  0
  3 15  1  0
  4 16  1  0
  8 17  1  0
 11 18  1  0
 12 19  1  0
 14 20  1  0
M  END
$$$$
